<polygons>
<poly id="15" color="200,0,255" layer="100" type="route" shape="1258.05,1417.05 1254.55,1402.84 1246.8,1372.74 1245.61,1368.28 1243.73,1361.3 1240.93,1348.19 1234.75,1319.54 1222.62,1263.33 1215.53,1242.97 1211.03,1223.97 1206.54,1213.02 1190.42,1178.46 1163.85,1121.48 1146.17,1083.56 1141.67,1073.26 1130.91,1047.54 1128.7,1041.99 1124.1,1030.15 1115.88,1007.92 1106.78,983.33 1095.7,953.18 1089.22,935.32 1065.09,869.95 1060.41,857.27 1047.85,819.21 1043.82,812.12 1028.26,765.18 1017.99,749.71 1017.14,749.78 1015.09,750.04 1013.07,750.39 1011.04,750.84 1008.82,751.42 1007.86,751.6 980.29,759.66 966.33,763.73 917.79,777.88 908.27,780.66 869.38,792.0 854.5,796.43 831.28,803.1 805.79,810.54 778.16,818.58 759.61,824.0 752.78,825.99 750.13,826.76 724.17,834.32 649.35,856.15 640.75,858.81 626.93,862.97 567.92,880.2 502.08,899.44 466.59,909.81 411.51,925.9 393.08,931.29 374.73,936.65 322.02,952.05 321.34,952.24 311.68,962.87 311.7,963.06 314.84,1009.31 315.16,1014.12 315.58,1020.25 317.27,1045.16 317.95,1055.11 319.11,1072.33 321.27,1104.07 321.53,1107.93 324.73,1154.98 331.02,1247.72 331.75,1258.53 333.57,1285.26 335.03,1306.76 335.18,1309.04 337.1,1329.82 337.77,1335.58 339.61,1361.02 344.17,1424.16 345.59,1443.69 345.78,1446.36 349.11,1492.55 349.56,1498.79 353.0,1546.38 354.21,1562.98"/>
<poly id="22_a" color="20,0,255" layer="100" type="route" shape="1015.39328545,1419.50236542 1014.6232853,1408.69236332 1012.60327294,1380.33218983 1010.43332955,1349.75298754 1010.33333202,1348.37302164 1005.80325835,1284.58198429 1005.23495364,1276.56138195 1020.15074466,1259.52376714 1022.24215697,1259.40233029 1062.45977859,1256.91247754 1094.68998923,1254.92246453 1101.51024955,1254.5024485 1122.5397236,1253.21248076 1128.62981255,1252.83247521 1138.27028332,1252.2424464 1181.89018706,1249.55245234 1205.85052637,1248.08243152 1210.31693272,1247.80933764 1214.12553207,1242.68076016 1209.78849975,1224.36884594 1205.34885849,1213.54165845 1189.24182782,1179.00946366 1162.67178484,1122.0293715 1144.98507477,1084.09497975 1140.47465096,1073.77112082 1129.7063852,1048.03136287 1127.49021457,1042.46586652 1122.88438286,1030.61085618 1114.66074779,1008.37102559 1105.56029602,983.779804819 1094.47886349,953.625906719 1087.99918241,935.766785726 1063.87042569,870.400153868 1059.18257873,857.698893299 1046.65597236,819.740084507 1042.62640558,812.650846671 1027.08075034,765.754120648 1017.33155618,751.068625641 1017.27519808,751.073266896 1015.2828536,751.325954489 1013.32178068,751.665744351 1011.34508532,752.10392805 1008.16292126,752.865856437 980.654322384,760.907906018 966.693842477,764.978045934 918.154112487,779.127967222 908.634158213,781.90795387 869.747429564,793.246999971 854.864935182,797.677742586 831.64158077,804.348706149 806.153731895,811.78807828 778.523906786,819.828027389 759.974121652,825.247964609 753.143191384,827.238235653 750.493108312,828.008259791 724.533799175,835.5680586 649.724150745,857.395038354 641.129428866,860.053405819 627.29954357,864.216381422 568.2845029,881.447853219 502.444623952,900.687817845 466.954564732,911.057835149 411.874715885,927.147790994 393.444702975,932.537794769 375.094534397,937.897844011 321.690332584,953.491905486 296.254217417,960.620816695 289.131160937,962.658830049 256.324665202,972.247805792 246.194369046,975.207892329 238.414391541,977.477885765 208.64442936,986.177874713 179.724382054,994.617888519 107.674367904,1015.66789265 102.057352408,1017.30702173 83.8969495272,1022.70714153 34.9510843748,1036.95593782 31.2487768606,1038.08359483">
    <param key="spread" value="1"/>
</poly>
<poly id="22_b" color="255,0,181" layer="100" type="route" shape="17.81,1016.9 22.09,1015.63 28.44,1013.73 76.79,999.45 95.34,994.11 100.84,992.52 201.58,963.36 212.1,960.31 246.42,950.38 285.01,939.21 289.73,937.84 315.11,930.51 317.71,929.77 375.23,913.01 392.3,908.04 409.09,903.14 543.69,863.94 577.44,854.12 609.73,844.71 620.65,841.48 637.0,865.83 637.4,867.12 646.01,894.9 651.27,911.89 655.11,924.25 663.12,950.11 670.1,974.27 672.64,983.03 685.51,1027.42 686.65,1031.19 688.37,1037.48 690.02,1045.86 695.46,1089.44 706.94,1181.39 712.25,1223.89 714.97,1245.65 717.15,1263.17 719.13,1278.96 725.54,1284.24 727.03,1284.12 767.31,1280.9 773.9,1280.37 776.02,1280.19 800.15,1278.27 827.33,1276.09 833.33,1275.61 844.94,1274.68 870.2,1272.66 890.4,1271.04 901.81,1270.13 936.07,1267.38 998.45,1262.41 999.78,1262.3 1016.14,1276.32 1016.68,1283.81 1021.21,1347.6 1021.31,1348.98 1023.48,1379.56 1025.5,1407.92 1026.27,1418.73">
    <param key="spread" value="1"/>
</poly>
<poly id="24_a" color="0,255,247" layer="100" type="route" shape="1834.4439375,263.609691354 1826.19201507,269.628387207 1702.87103849,363.936781429 1659.51011649,396.997484414 1615.93242354,430.446416393 1600.27989124,444.299807049 1597.23755016,446.561807397 1554.31821732,479.348936978 1496.56855472,523.928676524 1484.93704683,532.802198007 1476.07698983,539.412240534 1470.70940884,543.50802528 1462.21582914,550.04077857 1410.99509093,589.691350029 1408.89492803,591.311475695 1385.33431497,609.56195058 1383.83430313,610.721959735 1363.55356192,626.432533922 1352.63392336,634.902253571 1342.43397331,642.792214934 1334.43597657,648.994544931 1325.35080907,650.795998293 1288.88621587,661.44193693 1281.32643011,663.641874583 1257.21588673,670.672033023 1158.7049593,699.432303788 1156.36240412,700.119126247 1152.20134101,705.959034122 1148.4072207,708.46942952 1114.42943414,731.444124459 1078.96769135,750.252452894 1069.84399263,751.773069347 1058.93421697,751.071444282 1056.33604486,750.981507555 1017.98013736,748.406411362 1017.00480192,748.486733104 1014.8971464,748.754045511 1012.81821932,749.114255649 1010.73491468,749.57607195 1008.53555729,750.150678835 1007.55707874,750.334143563 979.925677616,758.412093982 965.966157523,762.481954066 917.425887513,776.632032778 907.905841787,779.41204613 869.012570436,790.753000029 854.135064818,795.182257414 830.91841923,801.851293851 805.426268105,809.29192172 777.796093214,817.331972611 759.245878348,822.752035391 752.416808616,824.741764347 749.766891688,825.511740209 723.806200825,833.0719414 648.975849255,854.904961646 640.370571134,857.566594181 626.56045643,861.723618578 567.5554971,878.952146781 501.715376048,898.192182155 466.225435268,908.562164851 411.145284115,924.652209006 392.715297025,930.042205231 374.365465603,935.402155989 321.662783302,950.800018016 320.989667416,950.988094514 295.545782583,958.119183305 288.408839063,960.161169951 255.595334798,969.752194208 245.465630954,972.712107671 237.685608459,974.982114235 207.91557064,983.682125287 178.995617946,992.122111481 106.945632096,1013.17210735 101.322647592,1014.81297827 83.1630504728,1020.21285847 34.2089156252,1034.46406218 30.4912231394,1035.59640517">
    <param key="spread" value="-1"/>
</poly>
<poly id="24_b" color="248,255,0" layer="100" type="route" shape="17.440189481,1015.65370943 21.7187680268,1014.38413122 28.0695595946,1012.48389437 76.4260690318,998.201971832 94.9796690407,992.860935496 100.478754067,991.271200006 201.218274163,962.111338918 211.73834464,959.061318485 246.058615802,949.131240029 284.648086706,937.961393177 289.368457205,936.591285638 314.751709812,929.260346252 317.350229656,928.520767527 374.86646149,911.761865484 391.936194914,906.791943099 408.726149352,901.891956396 543.326654067,862.691809406 577.076545792,852.87184091 609.363773649,843.462648772 620.289469751,840.230963936 634.654906296,836.186618037 639.218109683,834.958447323 642.614254422,833.962510449 671.375109929,825.532259687 717.403994845,812.102585031 743.708187553,804.341347943 746.030299055,803.680747257 794.106535586,789.671843892 815.136964641,783.551719031 830.206878356,779.171744109 862.456445772,769.781870062 876.285521341,765.752139437 948.76489603,744.532322509 1001.24286485,729.183390431 1007.67524745,726.46274522 1008.87343045,725.647980779 1044.0824967,706.596019472 1047.21076865,704.911565344 1057.2271636,699.677320842 1064.52864592,696.474024281 1069.09264349,695.173071702 1099.18768466,696.318210117 1140.77881604,693.305372104 1147.17999779,692.570167462 1155.98356969,690.119790547 1254.47559045,661.372119512 1278.60533184,654.322195071 1286.16566281,652.112098317 1330.40767852,639.211492568 1333.86266257,636.523231007 1346.35382721,626.84232839 1380.40400179,600.472193181 1400.93393471,584.572245139 1441.8956415,552.840922957 1470.05265595,531.183219372 1478.65996491,524.435329074 1490.08312131,515.552874707 1590.6582843,437.698878099 1593.64430568,435.424755858 1609.28771338,421.581740349 1642.48109266,396.666685759 1649.45249675,391.253360517 1688.00420793,361.294259584 1696.21308119,355.215094003 1818.34791058,259.879130082 1826.67921799,253.578141279 1914.78180426,185.163898264 1918.54189025,182.233831251 1937.58319761,167.452816398 1947.81309606,159.52289512 1970.95328354,141.552749526 1982.4439223,132.652254749">
    <param key="spread" value="1"/>
</poly>
<poly id="3_a" color="0,147,255" layer="100" type="route" shape="876.596307271,248.069329382 877.688083296,251.04678745 886.560294292,275.182802255 952.100256421,453.41269927 975.860272163,518.032742084 989.310129706,554.612354642 1000.23020331,584.282554634 1015.717838,626.42564286 1019.88735464,633.815682033 1026.3141209,655.282093421 1029.88350316,666.474224243 1033.66383663,683.655739868 1040.45491771,705.037765432 1008.46584252,754.131712874 981.018644769,762.155812036 967.057684954,766.226091867 918.518224975,780.375934445 908.998316425,783.15590774 870.114859128,794.493999942 855.229870364,798.925485172 832.00316154,805.597412298 806.51746379,813.03615656 778.887813571,821.076054778 760.338243305,826.495929217 753.506382769,828.486471306 750.856216623,829.256519582 724.89759835,836.8161172 650.098301489,858.640076709 641.508857733,861.296811638 627.66908714,865.462762844 568.649005801,882.695706438 502.809247904,901.93563569 467.319129463,912.305670297 412.239431769,928.395581988 393.809405949,933.785589539 375.459068794,939.145688021 322.040665167,954.743810973 296.608434833,961.87163339 289.492321873,963.907660099 256.689330403,973.495611583 246.558738093,976.455784657 238.778783082,978.72577153 209.00885872,987.425749426 180.088764109,995.865777037 108.038735809,1016.91578531 102.424704815,1018.55404346 84.2638990545,1023.95428306 35.3221687497,1038.20187564 31.6275537212,1039.32718965">
    <param key="spread" value="2"/>
</poly>
<poly id="3_b" color="255,0,217" layer="100" type="route" shape="18.179810519,1018.14629057 22.4612319732,1016.87586878 28.8104404054,1014.97610563 77.1539309682,1000.69802817 95.7003309593,995.359064504 101.201245933,993.768799994 201.941725837,964.608661082 212.46165536,961.558681515 246.781384198,951.628759971 285.371913294,940.458606823 290.091542795,939.088714362 315.468290188,931.759653748 318.069770344,931.019232473 375.59353851,914.258134516 392.663805086,909.288056901 409.453850648,904.388043604 544.053345933,865.188190594 577.803454208,855.36815909 610.096226351,845.957351228 621.010530249,842.729036064 635.345093704,838.693381963 639.921890317,837.461552677 643.345745578,836.457489551 672.104890071,828.027740313 718.136005155,814.597414969 744.431812447,806.838652057 746.749700945,806.179252743 794.833464414,792.168156108 815.863035359,786.048280969 830.933121644,781.668255891 863.183554228,772.278129938 877.014478659,768.247860563 949.49510397,747.027677491 1002.11713515,731.636609569 1008.92475255,728.75725478 1010.79957624,727.48237467 1011.88453464,712.9843521 1001.96015845,680.369930037 991.380557308,647.800372696 972.172025028,594.046495643 961.419670849,564.870107606 956.16916281,550.648731546 923.148780891,461.667702377 848.928776135,261.677689561">
    <param key="spread" value="-1"/>
</poly>
<poly id="7" color="142,255,0" layer="100" type="route" shape="18.5496210381,1019.39258114 22.8324639465,1018.12173756 29.1808808109,1016.22221126 77.5178619363,1001.94605634 96.0606619186,996.608129009 101.562491865,995.017599988 202.303451675,965.857322163 212.82331072,962.807363029 247.142768396,952.877519943 285.733826587,941.707213646 290.45308559,940.337428724 315.826580376,933.009307495 318.429540687,932.268464945 375.957077019,915.506269032 393.027610171,910.536113803 409.817701297,905.636087208 544.416691867,866.436381188 578.166908417,856.61631818 610.462452702,847.204702456 621.371060498,843.978072128 635.690187407,839.946763925 640.273780634,838.713105354 643.711491156,837.704979102 672.469780141,829.275480626 718.502010311,815.844829938 744.793624893,808.087304114 747.10940189,807.428505486 795.196928827,793.416312217 816.226070719,787.296561937 831.296243288,782.916511781 863.547108456,773.526259877 877.378957317,769.495721127 949.86020794,748.275354981 1002.55427031,732.863219138 1009.54950509,729.904509561 1010.90313909,728.984038442 1045.9350066,710.027961056 1049.0384627,708.356869311 1058.9156728,703.195358315 1065.85270816,700.151951438 1069.35458138,699.153753931 1091.31387469,703.593558648 1095.39060215,705.562825302 1098.35709287,708.301772703 1099.85086343,710.76403187 1100.98126446,713.919734727 1100.46171727,717.358990743 1077.89660736,749.11303501 1069.77798526,750.466138694 1058.99843395,749.772888565 1056.40208972,749.68301511 1017.97027472,747.102822724 1016.86960385,747.193466208 1014.7042928,747.468091023 1012.56643865,747.838511298 1010.42982935,748.3121439 1008.25111458,748.88135767 1007.25415748,749.068287126 979.561355231,757.164187964 965.602315046,761.233908133 917.061775025,775.384065555 907.541683575,778.16409226 868.645140872,789.506000058 853.770129636,793.934514828 830.55683846,800.602587702 805.06253621,808.04384344 777.432186429,816.083945222 758.881756695,821.504070783 752.053617231,823.493528694 749.403783377,824.263480418 723.44240165,831.8238828 648.601698511,853.659923291 639.991142267,856.323188362 626.19091286,860.477237156 567.190994199,877.704293562 501.350752096,896.94436431 465.860870537,907.314329703 410.780568231,923.404418012 392.350594051,928.794410461 374.000931206,934.154311979 321.305566603,949.550036032 320.639334833,949.736189027 295.191565167,956.86836661 288.047678127,958.912339901 255.230669597,968.504388417 245.101261907,971.464215343 237.321216918,973.73422847 207.55114128,982.434250574 178.631235891,990.874222963 106.581264191,1011.92421469 100.955295185,1013.56595654 82.7961009455,1018.96571694 33.8378312503,1033.21812436 30.1124462788,1034.35281035">
    <param key="spread" value="-2"/>
</poly>
<poly id="65_a" color="0,255,247" layer="100" type="route" shape="1835.21,264.66 1826.97,270.67 1703.66,364.97 1660.3,398.03 1616.76,431.45 1601.1,445.31 1598.02,447.6 1555.11,480.38 1497.36,524.96 1485.72,533.84 1476.86,540.45 1471.5,544.54 1463.01,551.07 1411.79,590.72 1409.69,592.34 1386.13,610.59 1384.63,611.75 1364.35,627.46 1353.43,635.93 1343.23,643.82 1334.99,650.21 1325.66,652.06 1289.25,662.69 1281.69,664.89 1257.58,671.92 1159.07,700.68 1157.16,701.24 1153.12,706.91 1149.13,709.55 1115.1,732.56 1079.39,751.5 1069.91,753.08 1058.87,752.37 1056.27,752.28 1010.57,713.13 1000.72,680.76 990.15,648.22 970.95,594.49 960.2,565.32 954.95,551.1 921.93,462.12 847.71,262.13">
    <param key="spread" value="-2"/>
</poly>
<poly id="65_b" color="255,250,0" layer="100" type="route" shape="874.15,248.95 874.69,250.45 875.25,251.95 884.12,276.08 949.66,454.31 973.42,518.93 986.87,555.51 997.79,585.18 1013.35,627.52 1017.48,634.84 1023.83,656.05 1027.37,667.15 1039.08,676.83 1046.13,680.2 1066.35,691.43 1069.43,692.5 1099.21,697.62 1140.9,694.6 1147.43,693.85 1156.34,691.37 1254.84,662.62 1278.97,655.57 1286.53,653.36 1331.01,640.39 1334.66,637.55 1347.15,627.87 1381.2,601.5 1401.73,585.6 1442.69,553.87 1470.85,532.21 1479.46,525.46 1490.88,516.58 1591.45,438.73 1594.47,436.43 1610.11,422.59 1643.27,397.7 1650.25,392.28 1688.79,362.33 1697.0,356.25 1819.14,260.91 1827.47,254.61 1915.58,186.19 1919.34,183.26 1938.38,168.48 1948.61,160.55 1971.75,142.58 1983.24,133.68">
    <param key="spread" value="-2"/>
</poly>
<poly id="181_a" color="0,255,227" layer="100" type="route" shape="1332.38609722,739.739910855 1297.04892566,686.256892905 1280.53099454,669.290348765 1258.67233981,675.663900932 1159.55278763,704.602621259 1155.87597696,709.762897634 1151.29833791,712.79171144 1117.11169759,735.907626622 1080.65692595,755.242641319 1070.10802211,757.000791959 1056.07186542,756.175477334 1008.76876378,755.397569311 981.382967153,763.403718054 967.421527431,767.474137801 918.882337462,781.623901667 909.362474638,784.403861609 870.482288692,795.740999913 855.594805546,800.173227758 832.36474231,806.846118446 806.881195686,814.284234841 779.251720357,822.324082167 760.702364957,827.743893826 751.219324935,830.504779374 725.261397524,838.0641758 650.472452234,859.885115063 641.888286599,862.540217457 628.03863071,866.709144266 569.013508701,883.943559657 503.173871856,903.183453535 467.683694195,913.553505446 412.604147654,929.643372981 394.174108924,935.033384308 375.823603191,940.393532032 322.390997751,955.995716459 296.96265225,963.122450084 289.85348281,965.156490148 257.053995605,974.743417375 246.923107139,977.703676986 239.143174623,979.973657296 209.37328808,988.673624139 180.453146163,997.113665556 108.403103713,1018.16367796 102.792057223,1019.80106519 84.6308485817,1025.20142459 32.0063305817,1040.57078448">
    <param key="spread" value="3"/>
</poly>
<poly id="181_b" color="76,255,0" layer="100" type="route" shape="17.0703789619,1014.40741886 21.3475360535,1013.13826244 27.6991191891,1011.23778874 76.0621380637,996.953943665 94.6193380814,991.611870991 100.117508135,990.022400012 200.856548325,960.862677837 211.37668928,957.812636971 245.697231604,947.882480057 284.286173413,936.712786354 289.00691441,935.342571276 314.393419624,928.010692505 316.990459313,927.271535055 374.502922981,910.513730968 391.572389829,905.543886197 408.362298703,900.643912792 542.963308133,861.443618812 576.713091583,851.62368182 608.997547298,842.215297544 619.928939502,838.981927872 634.309812593,834.933236075 638.866219366,833.706894646 642.248508844,832.715020898 671.010219859,824.284519374 717.037989689,810.855170062 745.67059811,802.431494514 793.743071173,788.423687783 814.773929281,782.303438063 829.843756712,777.923488219 862.092891544,768.533740123 875.921042683,764.504278873 948.39979206,743.284645019 1000.80572969,727.956780862 1008.19686091,724.535961558 1043.4649934,705.452038944 1046.6015373,703.763130689 1056.6643272,698.504641685 1064.08729184,695.248048562 1068.93528698,693.866143404 1099.16536931,695.016420234 1140.65763209,692.010744207 1146.92999558,691.290334924 1155.62713938,688.869581093 1254.11118091,660.124239024 1279.59267698,652.679375893 1308.71798864,677.642430987 1344.51852365,731.765599368">
    <param key="spread" value="2"/>
</poly>
<poly id="105_a" color="9,0,255" layer="100" type="route" shape="1014.0965709,1419.59473084 1013.3265706,1408.78472663 1011.30654588,1380.42437966 1009.03666404,1348.46604328 1004.5065167,1284.67396858 1003.89990728,1276.11276391 1022.16431393,1258.10466059 1062.37955718,1255.61495508 1094.60997846,1253.62492907 1101.43049911,1253.204897 1122.4594472,1251.91496153 1128.5496251,1251.53495043 1138.19056664,1250.9448928 1181.81037412,1248.25490468 1205.77105274,1246.78486304 1209.63386545,1246.54867528 1212.72106413,1242.39152032 1208.5469995,1224.76769188 1204.15771697,1214.06331689 1188.06365563,1179.55892732 1161.49356969,1122.578743 1143.80014953,1084.6299595 1139.27930192,1074.28224163 1128.50277039,1048.52272575 1126.28042915,1042.94173304 1121.66876571,1031.07171237 1113.44149559,1008.82205119 1104.34059205,984.229609638 1093.25772697,954.071813437 1086.77836482,936.213571451 1062.65085138,870.850307736 1057.95515746,858.127786598 1045.46194472,820.270169014 1041.43281116,813.181693342 1025.79513997,766.007381943 1008.09480775,713.92698102 998.239683104,681.540139926 987.688885384,649.059254608 968.505949944,595.377008713 957.760658302,566.219784788 952.51167438,552.002536908 919.492438218,463.024595246 845.27244773,263.034620878">
    <param key="spread" value="2"/>
</poly>
<poly id="105_b" color="208,255,0" layer="100" type="route" shape="875.373153635,248.509664691 875.910565953,250.002476684 876.469041648,251.498393725 885.340147146,275.631401127 950.880128211,453.861349635 974.640136082,518.481371042 988.090064853,555.061177321 999.010101656,584.731277317 1014.533919,626.97282143 1018.68367732,634.327841017 1025.07206045,655.66604671 1028.62675158,666.812112122 1032.40691832,683.992869934 1038.92825591,704.525595971 1053.10049304,757.683987162 1064.53335221,795.420417436 1067.63929729,805.517235688 1068.71247723,808.806333454 1132.54687931,993.809091414 1140.77436742,1020.9208141 1141.75424925,1023.64270805 1146.07525584,1035.83554841 1147.77138126,1040.61643996 1162.43122613,1074.86934724 1223.93015556,1212.69176913 1226.26134652,1219.43195169 1231.96504632,1239.80527648 1212.15660844,1259.91717168 1206.58947363,1260.25756848 1182.62983123,1261.72754654 1139.02973496,1264.41755248 1129.39012134,1265.00752883 1123.29021029,1265.38752329 1102.25969217,1266.67755507 1095.42997727,1267.09753754 1063.22024619,1269.08752093 1023.00148189,1271.57744443 1021.9713688,1271.64305672 1017.47571775,1276.76861666 1017.97668482,1283.71721549 1022.50666798,1347.50697836 1022.60667045,1348.88701246 1024.77672706,1379.46781017 1026.7967147,1407.82763668 1027.56671455,1418.63763458">
    <param key="spread" value="1"/>
</poly>
<poly id="74_a" color="222,255,0" layer="100" type="route" shape="1019.2834291,1419.22526916 1018.5134294,1408.41527337 1016.49345412,1380.05562034 1014.3233409,1349.47402491 1014.22333596,1348.09395672 1009.6934833,1284.30603142 1009.24009272,1277.90723609 1022.00851067,1263.32246572 1022.47568607,1263.29533941 1062.70044282,1260.80504492 1094.93002154,1258.81507093 1101.74950089,1258.395103 1122.7805528,1257.10503847 1128.8703749,1256.72504957 1138.50943336,1256.1351072 1182.12962588,1253.44509532 1206.08894726,1251.97513696 1212.36613455,1251.59132472 1218.33893587,1243.54847968 1213.5130005,1223.17230812 1208.92228303,1211.97668311 1192.77634437,1177.36107268 1166.20643031,1120.381257 1148.53985047,1082.4900405 1144.06069808,1072.23775837 1133.31722961,1046.55727425 1131.11957085,1041.03826696 1126.53123429,1029.22828763 1118.31850441,1007.01794881 1109.21940795,982.430390362 1098.14227303,952.288186563 1091.66163518,934.426428549 1067.52914862,869.049692264 1062.86484254,856.412213402 1050.23805528,818.149830986 1046.20718884,811.058306658 1030.72486003,764.352618057 1013.04519225,712.33301898 1003.2003169,679.979860074 992.611114616,647.380745392 973.394050056,593.602991287 962.639341698,564.420215212 957.38832562,550.197463092 924.367561782,461.215404754 850.14755227,261.225379122">
    <param key="spread" value="-2"/>
</poly>
<poly id="74_b" color="127,0,255" layer="100" type="route" shape="872.926846365,249.390335309 873.469434047,250.897523316 874.030958352,252.401606275 882.899852854,276.528598873 948.439871789,454.758650365 972.199863918,519.378628958 985.649935147,555.958822679 996.569898344,585.628722683 1012.166081,628.06717857 1016.27632268,635.352158983 1022.58793955,656.43395329 1026.11324842,667.487887878 1029.89308168,684.667130066 1036.43174409,705.254404029 1050.59950696,758.396012838 1062.04664779,796.179582564 1065.16070271,806.302764312 1066.24752277,809.633666546 1130.07312069,994.610908586 1138.30563258,1021.7391859 1139.30575075,1024.51729195 1143.62474416,1036.70445159 1145.34861874,1041.56356004 1160.04877387,1075.91065276 1221.50984444,1213.64823087 1223.77865348,1220.20804831 1229.05495368,1239.05472352 1211.00339156,1257.38282832 1206.43052637,1257.66243152 1182.47016877,1259.13245346 1138.87026504,1261.82244752 1129.22987866,1262.41247117 1123.12978971,1262.79247671 1102.10030783,1264.08244493 1095.27002273,1264.50246246 1063.05975381,1266.49247907 1022.83851811,1268.98255557 1020.7286312,1269.11694328 1014.80428225,1275.87138334 1015.38331518,1283.90278451 1019.91333202,1347.69302164 1020.01332955,1349.07298754 1022.18327294,1379.65218983 1024.2032853,1408.01236332 1024.97328545,1418.82236542">
    <param key="spread" value="-1"/>
</poly>
<poly id="27_a" color="81,255,0" layer="100" type="route" shape="1832.91181251,261.509074061 1824.63604521,267.545161621 1701.29311547,361.870344288 1657.93034946,394.932453243 1614.27727061,428.439249179 1598.63967371,442.279421147 1595.67265047,444.485422192 1552.73465197,477.286810935 1494.98566416,521.866029572 1483.3711405,530.72659402 1474.51096949,537.336721603 1469.12822652,541.444075841 1460.62748743,547.98233571 1409.40527279,587.634050086 1407.30478409,589.254427085 1383.74294492,607.505851741 1382.2429094,608.665879204 1361.96068575,624.377601765 1351.04177009,632.846760713 1340.84191993,640.736644801 1333.32792971,646.563634792 1324.73242721,648.26799488 1288.1586476,658.945810789 1280.59929034,661.14562375 1256.48766019,668.176099068 1157.97487789,696.936911363 1154.76721237,697.877378741 1150.36402304,704.057102366 1146.96166209,706.30828856 1113.08830241,729.212373378 1078.12307405,747.757358681 1069.71197789,749.159208041 1059.06265092,748.474332847 1056.46813458,748.384522666 1017.96041208,745.799234086 1016.73440577,745.900199311 1014.51143921,746.182136534 1012.31465797,746.562766946 1010.12474403,747.04821585 1007.96667186,747.612036505 1006.95123622,747.802430689 979.197032847,755.916281946 965.238472569,759.985862199 916.697662538,774.136098333 907.177525362,776.916138391 868.277711308,788.259000087 853.405194454,792.686772242 830.19525769,799.353881554 804.698804314,806.795765159 777.068279643,814.835917833 758.517635043,820.256106174 751.690425847,822.245293041 749.040675065,823.015220626 723.078602476,830.5758242 648.227547766,852.414884937 639.611713401,855.079782543 625.82136929,859.230855734 566.826491299,876.456440343 500.986128144,895.696546465 465.496305805,906.066494554 410.415852346,922.156627019 391.985891076,927.546615692 373.636396809,932.906467968 320.948349905,948.300054049 320.289002249,948.484283541 294.83734775,955.617549916 287.68651719,957.663509852 254.866004395,967.256582625 244.736892861,970.216323014 236.956825377,972.486342704 207.18671192,981.186375861 178.266853837,989.626334444 106.216896287,1010.67632204 100.587942777,1012.31893481 82.4291514183,1017.71857541 33.4667468755,1031.97218654 29.7336694183,1033.10921552">
    <param key="spread" value="-3"/>
</poly>
<poly id="27_b" color="255,157,0" layer="100" type="route" shape="16.7005684429,1013.1611283 20.9763040803,1011.89239366 27.3286787837,1009.99168311 75.6982070955,995.705915497 94.2590071221,990.362806487 99.7562622024,988.773600018 200.494822488,959.614016755 211.01503392,956.563955456 245.335847406,946.633720086 283.924260119,935.464179531 288.645371615,934.093856914 316.630688969,926.022302582 374.139384471,909.265596452 391.208584743,904.295829296 407.998448055,899.395869187 542.5999622,860.195428218 576.349637375,850.37552273 608.631320947,840.967946316 619.568409253,837.732891808 633.964718889,833.679854112 641.882763266,831.467531348 670.645329788,823.036779061 716.671984534,809.607755093 745.310897164,801.182241771 793.379606759,787.175531675 814.410893922,781.055157094 829.480635068,776.675232328 861.729337317,767.285610185 875.556564024,763.25641831 948.034688091,742.036967528 1000.36859454,726.730171293 1007.52029136,723.423942337 1045.99230595,702.614696033 1056.10149079,697.331962527 1063.64593776,694.022072843 1068.77793048,692.559215105 1099.14305397,693.714630352 1140.53644813,690.716116311 1146.67999337,690.010502386 1155.27070907,687.61937164 1253.74677136,658.876358536 1277.87599552,651.826585212 1285.43698844,649.616294952 1329.20303557,636.854477704 1332.26798771,634.46969302 1344.76148162,624.78698517 1378.81200538,598.416579544 1399.34180412,582.516735417 1440.3069245,550.78276887 1468.45796785,529.129658117 1477.05989472,522.385987221 1488.48936394,513.49862412 1591.99291704,433.414267574 1607.64314014,419.565221046 1640.90327797,394.600057276 1647.85749025,389.20008155 1686.4326238,359.222778753 1694.63924358,353.145282009 1816.76373173,257.817390246 1825.09765398,251.514423838 1913.18541277,183.111694793 1916.94567076,180.181493753 1935.98959284,165.398449194 1946.21928818,157.468685361 1969.35985062,139.498248579 1980.85176691,130.596764247">
    <param key="spread" value="3"/>
</poly>