<polygons>
<poly id="f0a" color="0,255,5" layer="100" type="route" shape="17.81,1016.9 22.09,1015.63 28.44,1013.73 76.79,999.45 95.34,994.11 100.84,992.52 201.58,963.36 212.1,960.31 246.42,950.38 285.01,939.21 289.73,937.84 315.11,930.51 317.71,929.77 375.23,913.01 392.3,908.04 409.09,903.14 543.69,863.94 577.44,854.12 609.73,844.71 620.65,841.48 635.0,837.44 639.57,836.21 642.98,835.21 671.74,826.78 717.77,813.35 744.07,805.59 746.39,804.93 794.47,790.92 815.5,784.8 830.57,780.42 862.82,771.03 876.65,767.0 949.13,745.78 1001.68,730.41 1008.3,727.61 1009.55,726.76 1044.7,707.74 1047.82,706.06 1057.79,700.85 1064.97,697.7 1069.25,696.48 1089.83,690.81 1090.01,690.74 1096.34,686.58 1103.17,682.61 1107.28,679.97 1119.4,670.43 1133.56,658.62 1163.31,633.99 1169.04,629.25 1191.96,610.26 1213.19,592.68 1232.2,576.95 1254.21,558.72 1278.73,538.42 1296.07,524.06 1302.11,519.06 1363.69,468.08 1392.23,444.45 1410.8,429.08 1427.27,415.45 1451.44,395.44 1466.67,382.83 1520.78,338.05"/>
<poly id="f0*" color="255,225,0" layer="100" type="route" shape="699.802277261,694.785166366 728.321627268,775.043337177 737.181357276,799.672586623 737.461411801,800.456739294 744.213148426,804.509598695 746.113306965,803.969036352 794.19041199,789.959879917 815.220742031,783.83978387 830.290675659,779.459803161 862.540342902,770.069900047 876.369631801,766.040107259 948.849150792,744.820248084 1001.34374219,729.466454178 1007.81942112,726.727496323 1009.02956189,725.904600599 1044.22499746,706.860014979 1047.3513605,705.176588726 1057.35704892,699.94793911 1064.63049686,696.756941755 1068.98012408,695.517094743 1089.5490868,689.846288026 1095.81373542,685.729236172 1102.6482526,681.756610516 1106.69918849,679.154549507 1118.77036738,669.652978009 1132.9208903,657.850882267 1162.6724433,633.219596537 1168.40229822,628.47971655 1191.32210438,609.489877157 1212.55234994,591.909673816 1231.56230734,576.17970906 1253.57220763,557.949791652 1278.09223432,537.649769551 1295.43225284,523.289754219 1301.47231609,518.289701855 1363.05228268,467.309729511 1391.59232545,443.679694101 1410.16241585,428.309619283 1426.63236859,414.679658393 1450.80227584,394.669735181 1466.03234722,382.059676077 1520.14243811,337.279600856">
    <param key="spread" value="1"/>
</poly>
<poly id="f0b" color="0,75,255" layer="100" type="route" shape="1601.1,445.31 1598.02,447.6 1555.11,480.38 1497.36,524.96 1485.72,533.84 1476.86,540.45 1471.5,544.54 1463.01,551.07 1411.79,590.72 1409.69,592.34 1386.13,610.59 1384.63,611.75 1364.35,627.46 1353.43,635.93 1343.23,643.82 1334.99,650.21 1325.66,652.06 1289.25,662.69 1281.69,664.89 1257.58,671.92 1159.07,700.68 1157.16,701.24 1153.12,706.91 1149.13,709.55 1115.1,732.56 1079.39,751.5 1069.91,753.08 1058.87,752.37 1056.27,752.28 1017.99,749.71 1017.14,749.78 1015.09,750.04 1013.07,750.39 1011.04,750.84 1008.82,751.42 1007.86,751.6 980.29,759.66 966.33,763.73 917.79,777.88 908.27,780.66 869.38,792.0 854.5,796.43 831.28,803.1 805.79,810.54 778.16,818.58 759.61,824.0 752.78,825.99 750.13,826.76 724.17,834.32 649.35,856.15 640.75,858.81 626.93,862.97 567.92,880.2 502.08,899.44 466.59,909.81 411.51,925.9 393.08,931.29 374.73,936.65 322.02,952.05 321.34,952.24 295.9,959.37 288.77,961.41 255.96,971.0 245.83,973.96 238.05,976.23 208.28,984.93 179.36,993.37 107.31,1014.42 101.69,1016.06 83.53,1021.46 34.58,1035.71 30.87,1036.84">
    <param key="spread" value="1"/>
</poly>
<poly id="f1" color="255,62,0" layer="100" type="route" shape="18.09446963,1017.85868505 22.3755630563,1016.5883606 28.724954158,1014.68854279 77.0699468986,1000.41002167 95.617177661,995.070818849 101.117881487,993.48061538 201.858250644,964.320508524 212.378196431,961.270524242 246.697987845,951.340584593 285.288394841,940.170466787 290.008109842,938.800549509 315.385607837,931.471272113 317.986746418,930.730948056 375.509645007,913.970103474 392.579850066,909.00004377 409.369885114,904.100033542 543.969496872,864.900146611 577.71958016,855.080122377 610.011712578,845.669500945 620.927330961,842.440796972 635.265456695,838.404139971 639.840684859,837.172732829 643.261342752,836.169607347 672.02068467,827.739800241 718.051542427,814.309549976 744.348317267,806.550501582 746.666693035,805.890963648 794.74958801,791.880120083 815.779257969,785.76021613 830.849324341,781.380196839 863.099657098,771.990099953 876.930368199,767.959892741 949.410849208,746.739751916 1002.01625781,731.353545822 1008.78057888,728.492503677 1010.51121249,727.315672823 1011.58118049,713.017963154 1001.67396804,680.459946182 991.096582545,647.897209766 971.890019252,594.148842803 961.138208346,564.973928928 955.887817546,550.75287042 922.867523762,461.772078752 848.647520104,261.782068893">
    <param key="spread" value="-1"/>
</poly>
<poly id="f2a" color="255,0,160" layer="100" type="route" shape="873.209112588,249.288719468 873.751103113,250.794248705 874.312275655,252.297389442 883.181425272,276.425076056 948.721439838,454.655115665 972.481433783,519.275099199 985.931488575,555.855248215 996.851460264,585.525171295 1012.43929308,627.940906592 1016.55409437,635.233968449 1022.87456889,656.345348684 1026.40326802,667.409913753 1030.18313976,684.58933082 1036.86898296,705.6400102 1044.75980909,708.843550723 1048.2886395,706.943411274 1058.22295108,701.75206089 1065.30950314,698.643058245 1069.51987592,697.442905257 1090.14484903,691.760514705 1090.4709132,691.633711974 1096.86626458,687.430763828 1103.6917474,683.463389484 1107.86081151,680.785450493 1120.02963262,671.207021991 1134.1991097,659.389117733 1163.9475567,634.760403463 1169.67770178,630.02028345 1192.59789562,611.030122843 1213.82765006,593.450326184 1232.83769266,577.72029094 1254.84779237,559.490208348 1279.36776568,539.190230449 1296.70774716,524.830245781 1302.74768391,519.830298145 1364.32771732,468.850270489 1392.86767455,445.220305899 1411.43758415,429.850380717 1427.90763141,416.220341607 1452.07772416,396.210264819 1467.30765278,383.600323923 1521.41756189,338.820399144">
    <param key="spread" value="-1"/>
</poly>
<poly id="f2b" color="255,213,0" layer="100" type="route" shape="1601.69665974,446.112494329 1598.62188449,448.398609694 1555.7190636,481.173125401 1497.96880406,525.753325751 1486.32227167,534.638309226 1477.46231552,541.248276512 1472.10814705,545.333826708 1463.62090066,551.861708792 1412.40146851,591.511269209 1410.30159382,593.131172542 1386.74206541,611.380807246 1385.24207451,612.540800204 1364.96264468,628.250358522 1354.04236664,636.720574176 1343.84232822,644.610603897 1335.41617187,651.144965438 1325.89783918,653.032309005 1289.52983395,663.650048516 1281.96966914,665.850096474 1257.86008713,672.879974598 1159.35080054,701.639766317 1157.77353529,702.102210579 1153.82666076,707.641512214 1149.68598408,710.381208061 1115.6158199,733.4183658 1079.71485281,752.45965162 1069.9607749,754.085331272 1058.82060233,753.368889014 1055.88538782,753.267285435 1009.69813503,713.699868653 999.766031963,681.060053818 989.203417455,648.542790234 970.009980748,594.831157197 959.261791654,565.666071072 954.012182454,551.44712958 920.992476238,462.467921248 846.772479896,262.477931107">
    <param key="spread" value="1"/>
</poly>
<poly id="f3a" color="255,176,0" layer="100" type="route" shape="874.15,248.95 874.69,250.45 875.25,251.95 884.12,276.08 949.66,454.31 973.42,518.93 986.87,555.51 997.79,585.18 1013.35,627.52 1017.48,634.84 1023.83,656.05 1027.37,667.15 1031.15,684.33 1037.68,704.89 1051.85,758.04 1063.29,795.8 1066.4,805.91 1067.48,809.22 1131.31,994.21 1139.54,1021.33 1140.53,1024.08 1144.85,1036.27 1146.56,1041.09 1161.24,1075.39 1222.72,1213.17 1225.02,1219.82 1230.51,1239.43 1233.34,1261.28 1239.0,1290.75 1248.85,1343.54 1251.5,1354.99 1253.88,1365.12 1258.17,1380.19 1263.88,1400.3 1267.25,1414.85">
    <param key="spread" value="1"/>
</poly>
<poly id="f3b" color="255,0,67" layer="100" type="route" shape="1258.05,1417.05 1254.55,1402.84 1246.8,1372.74 1245.61,1368.28 1243.73,1361.3 1240.93,1348.19 1234.75,1319.54 1222.62,1263.33 1215.53,1242.97 1211.03,1223.97 1206.54,1213.02 1190.42,1178.46 1163.85,1121.48 1146.17,1083.56 1141.67,1073.26 1130.91,1047.54 1128.7,1041.99 1124.1,1030.15 1115.88,1007.92 1106.78,983.33 1095.7,953.18 1089.22,935.32 1065.09,869.95 1060.41,857.27 1047.85,819.21 1043.82,812.12 1028.26,765.18 1010.57,713.13 1000.72,680.76 990.15,648.22 970.95,594.49 960.2,565.32 954.95,551.1 921.93,462.12 847.71,262.13">
    <param key="spread" value="1"/>
</poly>
<poly id="f4" color="36,0,255" layer="100" type="route" shape="17.52553037,1015.94131495 21.8044369437,1014.6716394 28.155045842,1012.77145721 76.5100531014,998.489978333 95.062822339,993.149181151 100.562118513,991.55938462 201.301749356,962.399491476 211.821803569,959.349475758 246.142012155,949.419415407 284.731605159,938.249533213 289.451890158,936.879450491 314.834392163,929.548727887 317.433253582,928.809051944 374.950354993,912.049896526 392.020149934,907.07995623 408.810114886,902.179966458 543.410503128,862.979853389 577.16041984,853.159877623 609.448287422,843.750499055 621.070737418,840.312723095 637.91179257,865.394049881 638.35515561,866.823895685 646.965220928,894.604106434 652.22512052,911.59378211 656.065100093,923.953716362 664.078055451,949.82325763 671.060575394,973.991979955 673.600443974,982.751526712 686.468852515,1027.1360376 687.611062406,1030.91334575 689.344154226,1037.25122223 691.00794783,1045.70127702 696.452297505,1089.31612239 707.932290596,1181.26606705 713.242281469,1223.765994 715.962312733,1245.52624411 718.142288672,1263.04605075 720.072748951,1278.44098398 725.863287507,1283.21072557 726.950018396,1283.12320362 767.230073872,1279.90319918 773.81761594,1279.37339686 775.938039639,1279.19336089 800.070366194,1277.27317576 827.250152744,1275.09319288 833.250203591,1274.61318882 844.860219275,1273.68318756 870.120172397,1271.66319131 890.320278244,1270.04318282 901.730243323,1269.13318561 935.990283749,1266.38318236 998.3690765,1261.41327855 999.70290833,1261.30296163 1020.70513667,1259.79208193 1022.26012074,1259.70179253 1062.47829122,1257.2119058 1094.70845325,1255.22189579 1101.5286535,1254.80188346 1122.55824892,1253.51190828 1128.64831734,1253.13190401 1138.28867948,1252.54188185 1181.90860543,1249.85188641 1205.86886644,1248.3818704 1210.47456363,1248.10025972 1214.44964005,1242.74750781 1210.07499981,1224.27680457 1205.6237373,1213.42127573 1189.51371371,1178.88266435 1162.94368065,1121.90259346 1145.26367037,1083.98257141">
    <param key="spread" value="1"/>
</poly>
<poly id="f4*" color="255,169,0" layer="100" type="route" shape="636.044863617,866.12616632 636.44484439,867.416104315 645.054779072,895.195893566 650.31487948,912.18621789 654.154899907,924.546283638 662.161944549,950.39674237 669.139424606,974.548020045 671.679556026,983.308473288 684.551147485,1027.7039624 685.688937594,1031.46665425 687.395845774,1037.70877777 689.03205217,1046.01872298 694.467702495,1089.56387761 705.947709404,1181.51393295 711.257718531,1224.014006 713.977687267,1245.77375589 716.157711328,1263.29394925 718.187251049,1279.47901602 725.216712493,1285.26927443 727.109981604,1285.11679638 767.389926128,1281.89680082 773.98238406,1281.36660314 776.101960361,1281.18663911 800.229633806,1279.26682424 827.409847256,1277.08680712 833.409796409,1276.60681118 845.019780725,1275.67681244 870.279827603,1273.65680869 890.479721756,1272.03681718 901.889756677,1271.12681439 936.149716251,1268.37681764 998.5309235,1263.40672145 999.85709167,1263.29703837 1020.83486333,1261.78791807 1022.37987926,1261.69820747 1062.60170878,1259.2080942 1094.83154675,1257.21810421 1101.6513465,1256.79811654 1122.68175108,1255.50809172 1128.77168266,1255.12809599 1138.41132052,1254.53811815 1182.03139457,1251.84811359 1205.99113356,1250.3781296 1211.52543637,1250.03974028 1216.61035995,1243.19249219 1211.98500019,1223.66319543 1207.4562627,1212.61872427 1191.32628629,1178.03733565 1164.75631935,1121.05740654 1147.07632963,1083.13742859">
    <param key="spread" value="-1"/>
</poly>
<poly id="f5" color="255,0,184" layer="100" type="route" shape="697.917722739,695.454833634 726.438372732,775.716662823 735.298642724,800.347413377 735.575023975,801.12128088 723.409794203,833.500108156 649.062191735,855.192278189 640.458131641,857.853533985 626.645735715,862.01124506 567.639613153,879.240112908 501.799520037,898.480140119 466.309565591,908.850126809 411.229449319,924.940160774 392.79945925,930.33015787 374.449588925,935.690119992 321.745217924,951.088475397 321.070513397,951.27699578 295.627525064,958.407833312 288.492183895,960.4493615 255.679488307,970.040149391 245.549716118,973.000082824 237.769698815,975.270087873 207.999669723,983.970096375 179.079706112,992.410085755 107.029716997,1013.46008257 101.407421225,1015.10075252 83.2477311329,1020.50066036 34.2945504809,1034.75158629 30.5786331842,1035.8833886">
    <param key="spread" value="-1"/>
</poly>
<poly id="f6a" color="255,195,0" layer="100" type="route" shape="17.24106074,1014.9826299 21.5188738873,1013.7132788 27.8700916839,1011.81291442 76.2301062028,997.529956665 94.785644678,992.188362301 100.284237027,990.59876924 201.023498712,961.438982951 211.543607138,958.388951516 245.864024311,948.458830813 284.453210318,937.289066426 288.591400273,936.087939257 296.356725886,926.88227099 293.655055209,889.372118706 288.905021444,821.951639447 287.556122137,803.097024692 286.797209271,794.269669774 285.647667374,780.635103273 282.376982769,744.877618684 280.035741357,714.37144319 277.074688493,674.960527465 276.338902047,671.252163776 274.6510645,659.922427903 271.805890178,621.983430873 270.325855937,603.222996841 267.51506749,565.522421554 266.204639029,546.316141816">
    <param key="spread" value="2"/>
</poly>
<poly id="f6b" color="24,0,255" layer="100" type="route" shape="700.744554523,694.450332731 729.263254536,774.706674353 738.76995205,801.14743824 725.690411594,835.959783689 649.92561653,858.065443622 641.333736717,860.722932029 627.498528569,864.88750988 568.480773693,882.119774183 502.640959926,901.359719761 467.150868818,911.729746383 412.071101361,927.819678452 393.6410815,933.209684261 375.290822149,938.569760016 322.432838203,954.011252044 313.692894012,962.887519943 316.835498529,1009.17588265 317.155457325,1013.9852633 317.575367762,1020.1139561 319.26537947,1045.02412869 319.945412097,1054.97460609 321.105431417,1072.19489289 323.265431823,1103.93489886 323.525434511,1107.79493876 326.725403,1154.84447545 333.015435513,1247.58495482 333.745417789,1258.39469237 335.565392302,1285.12431805 337.025547355,1306.62660135 337.175685745,1308.90870489">
    <param key="spread" value="2"/>
</poly>
<poly id="f2c" color="255,251,0" layer="100" type="route" shape="1217.47616057,1242.50906723 1212.94000038,1223.35639087 1208.3725254,1212.21744854 1192.23257259,1177.61467129 1165.6626387,1120.63481308 1147.9929619,1082.73695423 1143.50899852,1072.47366028 1132.76171508,1046.78405712 1130.56120835,1041.25789766 1125.97018022,1029.44099049 1117.75577263,1007.22611447 1108.65646766,982.637992586 1097.57867156,952.493989663 1091.09818091,934.632637345 1066.96626817,869.257455588 1062.29834042,856.610164155 1049.6869656,818.394485374 1045.65629911,811.303312814 1030.07423025,764.296737464 1019.0029905,747.619806706 1016.93200296,747.790358621 1014.79330216,748.061608479 1012.68264511,748.427316383 1010.57063796,748.895495308 1008.38239583,749.467198208 1007.39396729,749.652528558 979.729504024,757.740144588 965.770242343,761.809929333 917.229826943,775.960050427 907.709756596,778.74007097 868.814723748,790.081538506 853.938561258,794.510396022 830.723721892,801.178913617 805.230412469,808.619879569 777.600143407,816.659957863 759.049812843,822.080054448 752.221244024,824.069637457 749.571371828,824.839600321 723.610308962,832.399909846 648.77438347,854.234556378 640.166263283,856.897067971 626.361471431,861.05249012 567.359226307,878.280225817 501.519040074,897.520280239 466.029131182,907.890253617 410.948898639,923.980321548 392.5189185,929.370315739 374.169177851,934.730239984 321.470435849,950.126950794 320.801026794,950.313991559 295.355050128,957.445666623 288.21436779,959.488723001 255.398976613,969.080298782 245.269432236,972.040165648 237.489397629,974.310175746 207.719339446,983.010192749 178.799412224,991.45017151 106.749433993,1012.50016515 101.12484245,1014.14150503 82.9654622658,1019.54132072 34.0091009618,1033.79317258 30.2872663683,1034.92677719">
    <param key="spread" value="-2"/>
</poly>
<poly id="f2d" color="135,0,255" layer="100" type="route" shape="875.090887412,248.611280532 875.628896887,250.105751295 876.187724345,251.602610558 885.058574728,275.734923944 950.598560162,453.964884335 974.358566217,518.584900801 987.808511425,555.164751785 998.728539736,584.834828705 1014.26070692,627.099093408 1018.40590563,634.446031551 1024.78543111,655.754651316 1028.33673198,666.890086247 1032.11686024,684.07066918 1038.74727604,704.946832858 1018.6658965,750.657723209 1017.24399852,750.774820689 1015.23834892,751.02919576 1013.26367744,751.371341809 1011.27468102,751.812252346 1008.09301635,752.573735721 980.570247988,760.619927706 966.609878828,764.690035334 918.070086529,778.839974786 908.550121702,781.619964515 869.662638126,792.959230747 854.780719371,797.389801989 831.558139054,804.060543191 806.069793766,811.500060216 778.439928297,819.540021069 759.890093579,824.959972776 753.059377988,826.950181272 750.409314086,827.720199839 724.449845519,835.280045077 649.637808265,857.107721811 641.041868359,859.766466015 627.214264285,863.92875494 568.200386847,881.159887092 502.360479963,900.399859881 466.870434409,910.769873191 411.790550681,926.859839226 393.36054075,932.24984213 375.010411075,937.609880008 321.609486603,953.20300422 296.172474936,960.332166688 289.047816105,962.3706385 256.240511693,971.959850609 246.110283882,974.919917176 238.330301185,977.189912127 208.560330277,985.889903625 179.640293888,994.329914245 107.590283003,1015.37991743 101.972578775,1017.01924748 83.8122688671,1022.41933964 34.8654495191,1036.66841371 31.1613668158,1037.7966114">
    <param key="spread" value="1"/>
</poly>
<poly id="f8a" color="148,0,255" layer="100" type="route" shape="743.522748359,803.666327564 745.83661393,803.008072703 793.910823979,788.999759833 814.941484063,782.87956774 830.011351317,778.499606322 862.260685803,769.109800095 876.089263602,765.080214518 948.568301585,743.860496168 1001.00748438,728.522908355 1008.50912378,725.049201199 1043.74999492,705.980029957 1046.882721,704.293177453 1056.92409784,699.045878219 1064.29099372,695.813883509 1068.71024816,694.554189487 1089.0881736,688.952576052 1095.28747083,684.878472344 1102.1265052,680.903221033 1106.11837698,678.339099014 1118.14073475,668.875956017 1132.2817806,657.081764534 1162.0348866,632.449193075 1167.76459644,627.7094331 1190.68420875,608.719754315 1211.91469987,591.139347631 1230.92461469,575.409418119 1252.93441525,557.179583305 1277.45446864,536.879539102 1294.79450567,522.519508437 1300.83463218,517.51940371 1362.41456537,466.539459022 1390.9546509,442.909388202 1409.52483169,427.539238566 1425.99473718,413.909316787 1450.16455167,393.899470362 1465.39469444,381.289352154 1519.50487623,336.509201712">
    <param key="spread" value="2"/>
</poly>
<poly id="f8b" color="224,255,0" layer="100" type="route" shape="744.617251641,807.513672436 746.94338607,806.851927297 795.029176021,792.840240167 816.058515937,786.72043226 831.128648683,782.340393678 863.379314197,772.950199905 877.210736398,768.919785482 949.691698415,747.699503832 1002.35251562,732.297091645 1009.26115776,729.375007354 1011.47242498,727.871345646 1012.59236098,712.905926308 1002.62793607,680.159892364 992.04316509,647.574419532 972.830038505,593.807685605 962.076416691,564.627857855 956.825635093,550.40574084 923.805047525,461.424157503 849.585040207,261.434137786">
    <param key="spread" value="-2"/>
</poly>
</polygons>
