<?xml version="1.0" encoding="UTF-8"?>

<!-- generated on Сб 04 мая 2019 23:46:40 by Eclipse SUMO netedit Version 1.1.0
<configuration xmlns:xsi="http://www.w3.org/2001/XMLSchema-instance" xsi:noNamespaceSchemaLocation="http://sumo.dlr.de/xsd/netconvertConfiguration.xsd">

    <input>
        <sumo-net-file value="short_added.net.xml"/>
    </input>

    <output>
        <output-file value="short_added.net.xml"/>
        <output.street-names value="true"/>
    </output>

    <processing>
        <geometry.max-grade.fix value="false"/>
        <offset.disable-normalization value="true"/>
        <lefthand value="false"/>
    </processing>

    <junctions>
        <no-turnarounds value="true"/>
        <junctions.corner-detail value="5"/>
        <junctions.limit-turn-speed value="5.5"/>
        <rectangular-lane-cut value="false"/>
    </junctions>

    <pedestrian>
        <walkingareas value="false"/>
    </pedestrian>

    <visualisation>
        <registry-viewport value="true"/>
    </visualisation>

</configuration>
-->

<net version="1.1" junctionCornerDetail="5" limitTurnSpeed="5.50" xmlns:xsi="http://www.w3.org/2001/XMLSchema-instance" xsi:noNamespaceSchemaLocation="http://sumo.dlr.de/xsd/net_file.xsd">

    <location netOffset="-351491.60,-6645938.80" convBoundary="0.00,0.00,1984.22,2883.95" origBoundary="30.200856,59.831492,30.498482,60.049183" projParameter="+proj=utm +zone=36 +ellps=WGS84 +datum=WGS84 +units=m +no_defs"/>

    <type id="highway.bridleway" priority="1" numLanes="1" speed="2.78" allow="pedestrian" oneway="1" width="2.00"/>
    <type id="highway.bus_guideway" priority="1" numLanes="1" speed="27.78" allow="bus" oneway="1"/>
    <type id="highway.cycleway" priority="1" numLanes="1" speed="8.33" allow="bicycle" oneway="0" width="1.00"/>
    <type id="highway.footway" priority="1" numLanes="1" speed="2.78" allow="pedestrian" oneway="1" width="2.00"/>
    <type id="highway.ford" priority="1" numLanes="1" speed="2.78" allow="army" oneway="0"/>
    <type id="highway.living_street" priority="3" numLanes="1" speed="2.78" disallow="tram rail_urban rail rail_electric ship" oneway="0"/>
    <type id="highway.motorway" priority="13" numLanes="2" speed="44.44" allow="private emergency authority army vip passenger hov taxi bus coach delivery truck trailer motorcycle evehicle custom1 custom2" oneway="1"/>
    <type id="highway.motorway_link" priority="12" numLanes="1" speed="22.22" allow="private emergency authority army vip passenger hov taxi bus coach delivery truck trailer motorcycle evehicle custom1 custom2" oneway="1"/>
    <type id="highway.path" priority="1" numLanes="1" speed="2.78" allow="bicycle pedestrian" oneway="1" width="2.00"/>
    <type id="highway.pedestrian" priority="1" numLanes="1" speed="2.78" allow="pedestrian" oneway="1" width="2.00"/>
    <type id="highway.primary" priority="9" numLanes="2" speed="27.78" disallow="tram rail_urban rail rail_electric ship" oneway="0"/>
    <type id="highway.primary_link" priority="8" numLanes="1" speed="22.22" disallow="tram rail_urban rail rail_electric ship" oneway="0"/>
    <type id="highway.raceway" priority="14" numLanes="2" speed="83.33" allow="vip" oneway="0"/>
    <type id="highway.residential" priority="4" numLanes="1" speed="13.89" disallow="tram rail_urban rail rail_electric ship" oneway="0"/>
    <type id="highway.secondary" priority="7" numLanes="2" speed="27.78" disallow="tram rail_urban rail rail_electric ship" oneway="0"/>
    <type id="highway.secondary_link" priority="6" numLanes="1" speed="22.22" disallow="tram rail_urban rail rail_electric ship" oneway="0"/>
    <type id="highway.service" priority="2" numLanes="1" speed="5.56" allow="delivery bicycle pedestrian" oneway="0"/>
    <type id="highway.stairs" priority="1" numLanes="1" speed="1.39" allow="pedestrian" oneway="1" width="2.00"/>
    <type id="highway.step" priority="1" numLanes="1" speed="1.39" allow="pedestrian" oneway="1" width="2.00"/>
    <type id="highway.steps" priority="1" numLanes="1" speed="1.39" allow="pedestrian" oneway="1" width="2.00"/>
    <type id="highway.tertiary" priority="6" numLanes="1" speed="22.22" disallow="tram rail_urban rail rail_electric ship" oneway="0"/>
    <type id="highway.tertiary_link" priority="5" numLanes="1" speed="22.22" disallow="tram rail_urban rail rail_electric ship" oneway="0"/>
    <type id="highway.track" priority="1" numLanes="1" speed="5.56" disallow="tram rail_urban rail rail_electric ship" oneway="0"/>
    <type id="highway.trunk" priority="11" numLanes="2" speed="27.78" disallow="tram rail_urban rail rail_electric bicycle pedestrian ship" oneway="0"/>
    <type id="highway.trunk_link" priority="10" numLanes="1" speed="22.22" disallow="tram rail_urban rail rail_electric bicycle pedestrian ship" oneway="0"/>
    <type id="highway.unclassified" priority="5" numLanes="1" speed="13.89" disallow="tram rail_urban rail rail_electric ship" oneway="0"/>
    <type id="highway.unsurfaced" priority="1" numLanes="1" speed="8.33" disallow="tram rail_urban rail rail_electric ship" oneway="0"/>
    <type id="railway.light_rail" priority="15" numLanes="1" speed="27.78" allow="rail_urban" oneway="1"/>
    <type id="railway.preserved" priority="15" numLanes="1" speed="27.78" allow="rail" oneway="1"/>
    <type id="railway.rail" priority="15" numLanes="1" speed="83.33" allow="rail rail_electric" oneway="1"/>
    <type id="railway.subway" priority="15" numLanes="1" speed="27.78" allow="rail_urban" oneway="1"/>
    <type id="railway.tram" priority="15" numLanes="1" speed="13.89" allow="tram" oneway="1"/>

    <edge id=":1562060908_0" function="internal">
        <lane id=":1562060908_0_0" index="0" disallow="tram rail_urban rail rail_electric ship" speed="3.65" length="4.67" shape="551.89,327.40 552.22,326.00 552.84,325.35 553.73,325.45 554.89,326.30"/>
    </edge>
    <edge id=":1570463027_0" function="internal">
        <lane id=":1570463027_0_0" index="0" disallow="tram rail_urban rail rail_electric ship" speed="22.22" length="22.19" shape="1046.13,680.20 1052.30,682.66 1056.94,683.54 1061.58,683.77 1067.75,684.26"/>
    </edge>
    <edge id=":1570463027_1" function="internal">
        <lane id=":1570463027_1_0" index="0" disallow="tram rail_urban rail rail_electric ship" speed="22.22" length="23.22" shape="1044.76,683.09 1051.27,685.69 1056.23,686.66 1061.10,686.93 1067.35,687.43"/>
    </edge>
    <edge id=":1570463027_2" function="internal">
        <lane id=":1570463027_2_0" index="0" disallow="tram rail_urban rail rail_electric ship" speed="18.05" length="23.71" shape="1043.38,685.98 1050.79,688.75 1057.08,690.00 1062.26,690.61 1066.35,691.43"/>
    </edge>
    <edge id=":1570463029_0" function="internal">
        <lane id=":1570463029_0_0" index="0" disallow="tram rail_urban rail rail_electric ship" speed="14.37" length="15.30" shape="1082.60,686.11 1086.79,687.03 1089.80,687.96 1092.65,688.08 1096.34,686.58"/>
        <lane id=":1570463029_0_1" index="1" disallow="tram rail_urban rail rail_electric ship" speed="15.35" length="15.30" shape="1082.21,689.28 1087.00,690.26 1090.45,691.16 1093.71,691.14 1097.95,689.34"/>
    </edge>
    <edge id=":1570463029_2" function="internal">
        <lane id=":1570463029_2_0" index="0" disallow="tram rail_urban rail rail_electric ship" speed="27.78" length="8.71" shape="1090.01,690.74 1092.33,690.14 1094.07,690.21 1095.76,690.19 1097.95,689.34"/>
        <lane id=":1570463029_2_1" index="1" disallow="tram rail_urban rail rail_electric ship" speed="27.78" length="8.71" shape="1091.11,693.75 1093.58,693.09 1095.42,693.11 1097.22,693.04 1099.55,692.11"/>
        <lane id=":1570463029_2_2" index="2" disallow="tram rail_urban rail rail_electric ship" speed="27.78" length="8.71" shape="1092.21,696.76 1094.83,696.03 1096.78,696.01 1098.69,695.89 1101.16,694.88"/>
    </edge>
    <edge id=":1570463036_0" function="internal">
        <lane id=":1570463036_0_0" index="0" disallow="tram rail_urban rail rail_electric ship" speed="15.75" length="20.95" shape="1069.43,692.50 1073.28,693.49 1077.87,693.77 1083.33,692.99 1089.83,690.81"/>
    </edge>
    <edge id=":1570463036_1" function="internal">
        <lane id=":1570463036_1_0" index="0" disallow="tram rail_urban rail rail_electric ship" speed="13.89" length="30.28" shape="1069.43,692.50 1075.37,694.04 1084.22,695.81 1093.12,697.20 1099.21,697.62"/>
    </edge>
    <edge id=":1570463036_2" function="internal">
        <lane id=":1570463036_2_0" index="0" disallow="tram rail_urban rail rail_electric ship" speed="18.05" length="24.31" shape="1069.43,692.50 1074.34,694.23 1080.87,696.60 1087.37,699.08 1092.15,701.11"/>
    </edge>
    <edge id=":1570463036_3" function="internal">
        <lane id=":1570463036_3_0" index="0" disallow="tram rail_urban rail rail_electric ship" speed="27.78" length="22.64" shape="1069.25,696.48 1075.65,695.39 1080.25,695.62 1084.77,695.61 1090.93,693.82"/>
        <lane id=":1570463036_3_1" index="1" disallow="tram rail_urban rail rail_electric ship" speed="27.78" length="22.64" shape="1069.25,696.48 1075.95,695.83 1080.81,697.15 1085.58,698.21 1092.02,696.84"/>
    </edge>
    <edge id=":1570463036_5" function="internal">
        <lane id=":1570463036_5_0" index="0" disallow="tram rail_urban rail rail_electric ship" speed="20.84" length="30.29" shape="1069.25,696.48 1079.31,694.96 1087.77,695.63 1094.46,697.01 1099.21,697.62"/>
    </edge>
    <edge id=":1570463036_6" function="internal">
        <lane id=":1570463036_6_0" index="0" disallow="tram rail_urban rail rail_electric ship" speed="16.48" length="22.74" shape="1069.98,699.60 1077.32,698.23 1083.39,698.39 1088.29,699.52 1092.15,701.11"/>
    </edge>
    <edge id=":1570463047_0" function="internal">
        <lane id=":1570463047_0_0" index="0" disallow="tram rail_urban rail rail_electric ship" speed="27.78" length="7.80" shape="1157.16,701.24 1155.53,702.27 1154.97,703.72 1154.50,705.35 1153.12,706.91"/>
        <lane id=":1570463047_0_1" index="1" disallow="tram rail_urban rail rail_electric ship" speed="27.78" length="7.80" shape="1155.77,698.33 1154.04,699.49 1153.41,700.99 1152.85,702.63 1151.35,704.24"/>
        <lane id=":1570463047_0_2" index="2" disallow="tram rail_urban rail rail_electric ship" speed="27.78" length="7.80" shape="1154.38,695.43 1152.54,696.64 1151.82,698.18 1151.19,699.89 1149.58,701.57"/>
        <lane id=":1570463047_0_3" index="3" disallow="tram rail_urban rail rail_electric ship" speed="27.78" length="7.80" shape="1154.38,695.43 1152.32,696.21 1150.95,696.86 1149.65,697.67 1147.81,698.90"/>
        <lane id=":1570463047_0_4" index="4" disallow="tram rail_urban rail rail_electric ship" speed="27.78" length="7.80" shape="1154.38,695.43 1151.91,695.82 1150.04,695.49 1148.27,695.33 1146.05,696.24"/>
    </edge>
    <edge id=":1570463051_0" function="internal">
        <lane id=":1570463051_0_0" index="0" disallow="tram rail_urban rail rail_electric ship" speed="27.78" length="10.99" shape="1047.82,706.06 1057.79,700.85"/>
        <lane id=":1570463051_0_1" index="1" disallow="tram rail_urban rail rail_electric ship" speed="27.78" length="10.99" shape="1049.34,708.88 1059.07,703.78"/>
        <lane id=":1570463051_0_2" index="2" disallow="tram rail_urban rail rail_electric ship" speed="27.78" length="10.99" shape="1050.85,711.70 1060.35,706.71"/>
    </edge>
    <edge id=":1570463051_3" function="internal">
        <lane id=":1570463051_3_0" index="0" disallow="tram rail_urban rail rail_electric ship" speed="11.08" length="11.06" shape="1054.05,714.45 1055.72,710.01 1057.12,706.75 1058.23,704.67 1059.07,703.78"/>
        <lane id=":1570463051_3_1" index="1" disallow="tram rail_urban rail rail_electric ship" speed="10.32" length="11.06" shape="1054.05,714.45 1055.24,711.75 1056.69,709.56 1058.39,707.88 1060.35,706.71"/>
    </edge>
    <edge id=":1570463068_0" function="internal">
        <lane id=":1570463068_0_0" index="0" disallow="tram rail_urban rail rail_electric ship" speed="27.78" length="40.07" shape="1115.10,732.56 1105.26,739.83 1098.44,745.03 1091.03,748.73 1079.39,751.50"/>
        <lane id=":1570463068_0_1" index="1" disallow="tram rail_urban rail rail_electric ship" speed="27.78" length="40.07" shape="1113.31,729.91 1103.58,737.07 1096.82,742.17 1089.46,745.78 1077.96,748.50"/>
        <lane id=":1570463068_0_2" index="2" disallow="tram rail_urban rail rail_electric ship" speed="27.78" length="40.07" shape="1111.52,727.26 1101.89,734.32 1095.19,739.30 1087.90,742.83 1076.52,745.49"/>
        <lane id=":1570463068_0_3" index="3" disallow="tram rail_urban rail rail_electric ship" speed="27.78" length="40.07" shape="1109.73,724.61 1100.21,731.56 1093.56,736.44 1086.34,739.88 1075.09,742.49"/>
        <lane id=":1570463068_0_4" index="4" disallow="tram rail_urban rail rail_electric ship" speed="27.78" length="40.07" shape="1107.93,721.96 1098.52,728.80 1091.93,733.58 1084.78,736.92 1073.65,739.48"/>
    </edge>
    <edge id=":1570463068_5" function="internal">
        <lane id=":1570463068_5_0" index="0" disallow="tram rail_urban rail rail_electric ship" speed="15.17" length="39.67" shape="1102.94,718.36 1099.96,728.80 1094.57,736.80 1086.75,742.37 1076.52,745.49"/>
        <lane id=":1570463068_5_1" index="1" disallow="tram rail_urban rail rail_electric ship" speed="14.96" length="39.67" shape="1102.94,718.36 1100.06,727.37 1094.46,734.39 1086.13,739.43 1075.09,742.49"/>
        <lane id=":1570463068_5_2" index="2" disallow="tram rail_urban rail rail_electric ship" speed="14.77" length="39.67" shape="1102.94,718.36 1100.16,725.93 1094.35,731.97 1085.52,736.49 1073.65,739.48"/>
    </edge>
    <edge id=":1570463091_0" function="internal">
        <lane id=":1570463091_0_0" index="0" disallow="tram rail_urban rail rail_electric ship" speed="27.78" length="10.61" shape="1069.91,753.08 1066.66,753.38 1064.41,753.14 1062.16,752.69 1058.87,752.37"/>
        <lane id=":1570463091_0_1" index="1" disallow="tram rail_urban rail rail_electric ship" speed="27.78" length="10.61" shape="1069.38,749.93 1066.21,750.21 1064.02,749.94 1061.82,749.48 1058.61,749.16"/>
        <lane id=":1570463091_0_2" index="2" disallow="tram rail_urban rail rail_electric ship" speed="27.78" length="10.61" shape="1068.85,746.77 1065.76,747.03 1063.63,746.75 1061.48,746.27 1058.35,745.95"/>
        <lane id=":1570463091_0_3" index="3" disallow="tram rail_urban rail rail_electric ship" speed="27.78" length="10.61" shape="1068.33,743.61 1065.31,743.86 1063.23,743.56 1061.14,743.07 1058.09,742.74"/>
        <lane id=":1570463091_0_4" index="4" disallow="tram rail_urban rail rail_electric ship" speed="27.78" length="10.61" shape="1067.80,740.46 1064.86,740.68 1062.84,740.36 1060.80,739.86 1057.83,739.53"/>
    </edge>
    <edge id=":1570463091_5" function="internal">
        <lane id=":1570463091_5_0" index="0" disallow="tram rail_urban rail rail_electric ship" speed="10.10" length="10.33" shape="1067.80,740.46 1066.32,740.31 1064.33,739.46 1061.84,737.90 1058.86,735.64"/>
    </edge>
    <edge id=":1570463096_0" function="internal">
        <lane id=":1570463096_0_0" index="0" disallow="tram rail_urban rail rail_electric ship" speed="6.10" length="9.06" shape="972.51,768.02 971.96,765.52 970.75,763.97 968.87,763.37 966.33,763.73"/>
    </edge>
    <edge id=":1570463096_1" function="internal">
        <lane id=":1570463096_1_0" index="0" disallow="tram rail_urban rail rail_electric ship" speed="7.68" length="15.06" shape="975.70,767.79 974.79,763.63 972.77,761.05 969.65,760.07 965.44,760.66"/>
    </edge>
    <edge id=":1570463096_2" function="internal">
        <lane id=":1570463096_2_0" index="0" disallow="tram rail_urban rail rail_electric ship" speed="8.37" length="18.11" shape="975.70,767.79 974.64,762.21 972.43,758.65 969.06,757.11 964.54,757.59"/>
    </edge>
    <edge id=":1570463096_3" function="internal">
        <lane id=":1570463096_3_0" index="0" disallow="tram rail_urban rail rail_electric ship" speed="27.78" length="14.54" shape="980.29,759.66 966.33,763.73"/>
        <lane id=":1570463096_3_1" index="1" disallow="tram rail_urban rail rail_electric ship" speed="27.78" length="14.54" shape="979.40,756.59 965.44,760.66"/>
        <lane id=":1570463096_3_2" index="2" disallow="tram rail_urban rail rail_electric ship" speed="27.78" length="14.54" shape="978.50,753.52 964.54,757.59"/>
        <lane id=":1570463096_3_3" index="3" disallow="tram rail_urban rail rail_electric ship" speed="27.78" length="14.54" shape="977.60,750.45 963.65,754.52"/>
    </edge>
    <edge id=":1570463115_0" function="internal">
        <lane id=":1570463115_0_0" index="0" disallow="tram rail_urban rail rail_electric ship" speed="8.94" length="9.78" shape="1068.00,796.67 1066.68,798.82 1065.98,801.07 1065.88,803.44 1066.40,805.91"/>
    </edge>
    <edge id=":1570463115_1" function="internal">
        <lane id=":1570463115_1_0" index="0" disallow="tram rail_urban rail rail_electric ship" speed="9.67" length="11.53" shape="1068.00,796.67 1065.60,800.03 1064.03,802.85 1063.28,805.14 1063.36,806.90"/>
    </edge>
    <edge id=":1570463115_2" function="internal">
        <lane id=":1570463115_2_0" index="0" disallow="tram rail_urban rail rail_electric ship" speed="27.78" length="10.68" shape="1063.29,795.80 1066.40,805.91"/>
        <lane id=":1570463115_2_1" index="1" disallow="tram rail_urban rail rail_electric ship" speed="27.78" length="10.68" shape="1060.23,796.73 1063.36,806.90"/>
        <lane id=":1570463115_2_2" index="2" disallow="tram rail_urban rail rail_electric ship" speed="27.78" length="10.68" shape="1057.17,797.66 1060.32,807.90"/>
        <lane id=":1570463115_2_3" index="3" disallow="tram rail_urban rail rail_electric ship" speed="27.78" length="10.68" shape="1054.10,798.58 1057.27,808.89"/>
    </edge>
    <edge id=":1570463137_0" function="internal">
        <lane id=":1570463137_0_0" index="0" disallow="tram rail_urban rail rail_electric ship" speed="8.12" length="13.96" shape="28.99,1030.72 27.14,1032.05 26.20,1034.62 26.18,1038.43 27.07,1043.48"/>
    </edge>
    <edge id=":1570463137_1" function="internal">
        <lane id=":1570463137_1_0" index="0" disallow="tram rail_urban rail rail_electric ship" speed="9.34" length="18.76" shape="28.05,1027.66 24.98,1029.56 23.28,1032.95 22.94,1037.83 23.95,1044.22"/>
    </edge>
    <edge id=":1570574334_0" function="internal">
        <lane id=":1570574334_0_0" index="0" disallow="tram rail_urban rail rail_electric ship" speed="25.00" length="20.51" shape="1529.93,324.24 1542.10,340.62"/>
        <lane id=":1570574334_0_1" index="1" disallow="tram rail_urban rail rail_electric ship" speed="25.00" length="20.51" shape="1527.37,326.14 1539.53,342.52"/>
        <lane id=":1570574334_0_2" index="2" disallow="tram rail_urban rail rail_electric ship" speed="25.00" length="20.51" shape="1527.37,326.14 1530.52,331.22 1532.09,335.19 1533.70,339.20 1536.96,344.43"/>
    </edge>
    <edge id=":1570574334_3" function="internal">
        <lane id=":1570574334_3_0" index="0" disallow="tram rail_urban rail rail_electric ship" speed="3.65" length="2.57" shape="1527.37,326.14 1527.44,327.58 1527.04,328.38 1526.80,328.42"/>
    </edge>
    <edge id=":1570574334_8" function="internal">
        <lane id=":1570574334_8_0" index="0" disallow="tram rail_urban rail rail_electric ship" speed="3.65" length="2.10" shape="1526.80,328.42 1526.15,328.54 1524.80,328.05"/>
    </edge>
    <edge id=":1570574334_4" function="internal">
        <lane id=":1570574334_4_0" index="0" disallow="tram rail_urban rail rail_electric ship" speed="6.70" length="9.26" shape="1520.78,338.05 1522.60,336.11 1523.45,334.12 1523.33,332.07 1522.23,329.96"/>
    </edge>
    <edge id=":1570574334_5" function="internal">
        <lane id=":1570574334_5_0" index="0" disallow="tram rail_urban rail rail_electric ship" speed="8.16" length="14.22" shape="1522.82,340.51 1525.55,337.57 1526.79,334.52 1526.54,331.34 1524.80,328.05"/>
    </edge>
    <edge id=":1570574334_6" function="internal">
        <lane id=":1570574334_6_0" index="0" disallow="tram rail_urban rail rail_electric ship" speed="7.82" length="14.07" shape="1524.87,342.97 1528.18,340.95 1531.30,340.51 1534.23,341.68 1536.96,344.43"/>
    </edge>
    <edge id=":1570574334_7" function="internal">
        <lane id=":1570574334_7_0" index="0" disallow="tram rail_urban rail rail_electric ship" speed="6.29" length="8.70" shape="1526.91,345.44 1528.96,344.18 1530.89,343.92 1532.70,344.63 1534.39,346.34"/>
    </edge>
    <edge id=":1570574351_0" function="internal">
        <lane id=":1570574351_0_0" index="0" disallow="tram rail_urban rail rail_electric ship" speed="6.54" length="9.08" shape="869.65,763.16 870.70,765.43 872.22,766.82 874.20,767.35 876.65,767.00"/>
    </edge>
    <edge id=":1570574351_1" function="internal">
        <lane id=":1570574351_1_0" index="0" disallow="tram rail_urban rail rail_electric ship" speed="3.65" length="4.67" shape="869.65,763.16 869.23,764.54 868.58,765.15 867.70,765.00 866.59,764.09"/>
    </edge>
    <edge id=":1570574351_2" function="internal">
        <lane id=":1570574351_2_0" index="0" disallow="tram rail_urban rail rail_electric ship" speed="6.49" length="9.03" shape="862.82,771.03 865.08,770.01 866.46,768.51 866.96,766.54 866.59,764.09"/>
    </edge>
    <edge id=":1570574351_3" function="internal">
        <lane id=":1570574351_3_0" index="0" disallow="tram rail_urban rail rail_electric ship" speed="27.78" length="14.41" shape="863.72,774.10 877.55,770.07"/>
        <lane id=":1570574351_3_1" index="1" disallow="tram rail_urban rail rail_electric ship" speed="27.78" length="14.41" shape="864.61,777.18 878.45,773.14"/>
        <lane id=":1570574351_3_2" index="2" disallow="tram rail_urban rail rail_electric ship" speed="27.78" length="14.41" shape="865.51,780.25 879.34,776.21"/>
    </edge>
    <edge id=":1570574382_0" function="internal">
        <lane id=":1570574382_0_0" index="0" disallow="tram rail_urban rail rail_electric ship" speed="6.54" length="8.91" shape="205.18,956.56 206.26,958.77 207.77,960.13 209.71,960.64 212.10,960.31"/>
    </edge>
    <edge id=":1570574382_1" function="internal">
        <lane id=":1570574382_1_0" index="0" disallow="tram rail_urban rail rail_electric ship" speed="7.36" length="11.56" shape="205.18,956.56 206.68,960.10 208.48,962.42 210.58,963.52 212.99,963.39"/>
    </edge>
    <edge id=":1570574382_2" function="internal">
        <lane id=":1570574382_2_0" index="0" disallow="tram rail_urban rail rail_electric ship" speed="27.78" length="10.95" shape="201.58,963.36 212.10,960.31"/>
        <lane id=":1570574382_2_1" index="1" disallow="tram rail_urban rail rail_electric ship" speed="27.78" length="10.95" shape="202.47,966.43 212.99,963.39"/>
        <lane id=":1570574382_2_2" index="2" disallow="tram rail_urban rail rail_electric ship" speed="27.78" length="10.95" shape="203.36,969.51 213.88,966.46"/>
        <lane id=":1570574382_2_3" index="3" disallow="tram rail_urban rail rail_electric ship" speed="27.78" length="10.95" shape="204.25,972.58 214.77,969.53"/>
    </edge>
    <edge id=":1573794602_0" function="internal">
        <lane id=":1573794602_0_0" index="0" disallow="tram rail_urban rail rail_electric ship" speed="6.58" length="8.79" shape="1471.50,544.54 1469.86,546.22 1469.13,548.07 1469.29,550.09 1470.35,552.28"/>
    </edge>
    <edge id=":1573794602_1" function="internal">
        <lane id=":1573794602_1_0" index="0" disallow="tram rail_urban rail rail_electric ship" speed="27.78" length="10.73" shape="1471.50,544.54 1463.01,551.07"/>
        <lane id=":1573794602_1_1" index="1" disallow="tram rail_urban rail rail_electric ship" speed="27.78" length="10.73" shape="1469.56,542.00 1461.05,548.54"/>
        <lane id=":1573794602_1_2" index="2" disallow="tram rail_urban rail rail_electric ship" speed="27.78" length="10.73" shape="1467.61,539.46 1459.09,546.01"/>
    </edge>
    <edge id=":1573794606_0" function="internal">
        <lane id=":1573794606_0_0" index="0" disallow="tram rail_urban rail rail_electric ship" speed="27.78" length="8.70" shape="1334.99,650.21 1328.30,655.77"/>
    </edge>
    <edge id=":1573794606_1" function="internal">
        <lane id=":1573794606_1_0" index="0" disallow="tram rail_urban rail rail_electric ship" speed="21.74" length="8.58" shape="1334.99,650.21 1332.59,651.54 1330.63,651.73 1328.52,651.62 1325.66,652.06"/>
        <lane id=":1573794606_1_1" index="1" disallow="tram rail_urban rail rail_electric ship" speed="20.44" length="8.58" shape="1333.03,647.69 1330.91,648.81 1329.16,648.86 1327.28,648.65 1324.76,648.98"/>
        <lane id=":1573794606_1_2" index="2" disallow="tram rail_urban rail rail_electric ship" speed="19.07" length="8.58" shape="1331.07,645.16 1329.22,646.07 1327.70,645.99 1326.06,645.68 1323.87,645.91"/>
    </edge>
    <edge id=":1701377591_0" function="internal">
        <lane id=":1701377591_0_0" index="0" disallow="tram rail_urban rail rail_electric ship" speed="27.78" length="8.21" shape="1047.85,819.21 1046.86,817.01 1045.83,815.67 1044.81,814.32 1043.82,812.12"/>
        <lane id=":1701377591_0_1" index="1" disallow="tram rail_urban rail rail_electric ship" speed="27.78" length="8.21" shape="1047.85,819.21 1047.33,816.86 1047.35,815.16 1047.37,813.47 1046.85,811.12"/>
        <lane id=":1701377591_0_2" index="2" disallow="tram rail_urban rail rail_electric ship" speed="27.78" length="8.21" shape="1050.88,818.21 1050.37,815.85 1050.39,814.16 1050.41,812.46 1049.89,810.11"/>
        <lane id=":1701377591_0_3" index="3" disallow="tram rail_urban rail rail_electric ship" speed="27.78" length="8.21" shape="1053.92,817.21 1053.41,814.85 1053.43,813.15 1053.45,811.46 1052.93,809.10"/>
    </edge>
    <edge id=":1829591308_0" function="internal">
        <lane id=":1829591308_0_0" index="0" disallow="tram rail_urban rail rail_electric ship" speed="27.78" length="11.12" shape="1146.17,1083.56 1141.67,1073.26"/>
        <lane id=":1829591308_0_1" index="1" disallow="tram rail_urban rail rail_electric ship" speed="27.78" length="11.12" shape="1149.07,1082.21 1144.62,1072.02"/>
        <lane id=":1829591308_0_2" index="2" disallow="tram rail_urban rail rail_electric ship" speed="27.78" length="11.12" shape="1151.97,1080.86 1147.57,1070.78"/>
    </edge>
    <edge id=":1829591308_3" function="internal">
        <lane id=":1829591308_3_0" index="0" disallow="tram rail_urban rail rail_electric ship" speed="6.02" length="9.07" shape="1138.00,1079.70 1140.48,1078.98 1141.92,1077.67 1142.32,1075.76 1141.67,1073.26"/>
    </edge>
    <edge id=":1834948819_0" function="internal">
        <lane id=":1834948819_0_0" index="0" disallow="tram rail_urban rail rail_electric ship" speed="11.11" length="10.70" shape="997.41,1104.30 996.61,1093.62"/>
        <lane id=":1834948819_0_1" index="1" disallow="tram rail_urban rail rail_electric ship" speed="11.11" length="10.70" shape="1000.60,1104.06 999.80,1093.39"/>
    </edge>
    <edge id=":1834948819_2" function="internal">
        <lane id=":1834948819_2_0" index="0" disallow="tram rail_urban rail rail_electric ship" speed="6.57" length="8.79" shape="1000.60,1104.06 1000.76,1101.72 1001.66,1099.94 1003.27,1098.73 1005.61,1098.07"/>
    </edge>
    <edge id=":1908472456_0" function="internal">
        <lane id=":1908472456_0_0" index="0" disallow="tram rail_urban rail rail_electric ship" speed="3.65" length="4.67" shape="800.59,551.85 801.00,550.46 801.64,549.84 802.53,549.99 803.65,550.89"/>
    </edge>
    <edge id=":21742662_0" function="internal">
        <lane id=":21742662_0_0" index="0" disallow="tram rail_urban rail rail_electric ship" speed="6.50" length="9.03" shape="378.00,515.39 376.99,513.13 375.50,511.74 373.52,511.21 371.07,511.55"/>
    </edge>
    <edge id=":21742662_1" function="internal">
        <lane id=":21742662_1_0" index="0" disallow="tram rail_urban rail rail_electric ship" speed="7.33" length="11.73" shape="381.08,514.50 380.35,510.70 380.60,507.77 381.82,505.70 384.02,504.49"/>
    </edge>
    <edge id=":21742662_2" function="internal">
        <lane id=":21742662_2_0" index="0" disallow="tram rail_urban rail rail_electric ship" speed="22.22" length="14.40" shape="384.91,507.56 371.07,511.55"/>
    </edge>
    <edge id=":21742662_3" function="internal">
        <lane id=":21742662_3_0" index="0" disallow="tram rail_urban rail rail_electric ship" speed="3.65" length="2.34" shape="384.91,507.56 383.53,507.13 382.93,506.47"/>
    </edge>
    <edge id=":21742662_6" function="internal">
        <lane id=":21742662_6_0" index="0" disallow="tram rail_urban rail rail_electric ship" speed="3.65" length="2.34" shape="382.93,506.47 383.09,505.59 384.02,504.49"/>
    </edge>
    <edge id=":21742662_4" function="internal">
        <lane id=":21742662_4_0" index="0" disallow="tram rail_urban rail rail_electric ship" speed="22.22" length="14.40" shape="370.19,508.48 384.02,504.49"/>
    </edge>
    <edge id=":21742662_5" function="internal">
        <lane id=":21742662_5_0" index="0" disallow="tram rail_urban rail rail_electric ship" speed="3.65" length="2.34" shape="370.19,508.48 371.56,508.92 372.17,509.57"/>
    </edge>
    <edge id=":21742662_7" function="internal">
        <lane id=":21742662_7_0" index="0" disallow="tram rail_urban rail rail_electric ship" speed="3.65" length="2.34" shape="372.17,509.57 372.00,510.45 371.07,511.55"/>
    </edge>
    <edge id=":21742663_0" function="internal">
        <lane id=":21742663_0_0" index="0" disallow="tram rail_urban rail rail_electric ship" speed="6.53" length="9.02" shape="492.18,476.66 489.95,477.67 488.56,479.16 488.03,481.14 488.35,483.60"/>
    </edge>
    <edge id=":21742663_1" function="internal">
        <lane id=":21742663_1_0" index="0" disallow="tram rail_urban rail rail_electric ship" speed="22.22" length="14.31" shape="492.18,476.66 478.43,480.62"/>
    </edge>
    <edge id=":21742663_2" function="internal">