<?xml version="1.0" encoding="UTF-8"?>

<!-- generated on Sun Mar 24 22:27:15 2019 by Eclipse SUMO netconvert Version 1.1.0
<configuration xmlns:xsi="http://www.w3.org/2001/XMLSchema-instance" xsi:noNamespaceSchemaLocation="http://sumo.dlr.de/xsd/netconvertConfiguration.xsd">

    <input>
        <osm-files value="short_added.osm"/>
    </input>

    <output>
        <output-prefix value="short_added.cut"/>
        <output.street-names value="true"/>
    </output>

    <projection>
        <proj.utm value="true"/>
    </projection>

    <processing>
        <geometry.remove value="true"/>
    </processing>

    <tls_building>
        <tls.discard-simple value="true"/>
        <tls.join value="true"/>
        <tls.guess-signals value="true"/>
    </tls_building>

    <edge_removal>
        <remove-edges.by-type value="railway.subway,highway.service,highway.footway,highway.steps,highway.pedestrian"/>
    </edge_removal>

    <junctions>
        <junctions.join value="true"/>
    </junctions>

</configuration>
-->

<net version="1.1" junctionCornerDetail="5" limitTurnSpeed="5.50" xmlns:xsi="http://www.w3.org/2001/XMLSchema-instance" xsi:noNamespaceSchemaLocation="http://sumo.dlr.de/xsd/net_file.xsd">

    <location netOffset="-351491.60,-6645938.80" convBoundary="0.00,0.00,1984.22,2883.95" origBoundary="30.200856,59.831492,30.498482,60.049183" projParameter="+proj=utm +zone=36 +ellps=WGS84 +datum=WGS84 +units=m +no_defs"/>

    <type id="highway.bridleway" priority="1" numLanes="1" speed="2.78" allow="pedestrian" oneway="1" width="2.00"/>
    <type id="highway.bus_guideway" priority="1" numLanes="1" speed="27.78" allow="bus" oneway="1"/>
    <type id="highway.cycleway" priority="1" numLanes="1" speed="8.33" allow="bicycle" oneway="0" width="1.00"/>
    <type id="highway.footway" priority="1" numLanes="1" speed="2.78" allow="pedestrian" oneway="1" width="2.00"/>
    <type id="highway.ford" priority="1" numLanes="1" speed="2.78" allow="army" oneway="0"/>
    <type id="highway.living_street" priority="3" numLanes="1" speed="2.78" disallow="tram rail_urban rail rail_electric ship" oneway="0"/>
    <type id="highway.motorway" priority="13" numLanes="2" speed="44.44" allow="private emergency authority army vip passenger hov taxi bus coach delivery truck trailer motorcycle evehicle custom1 custom2" oneway="1"/>
    <type id="highway.motorway_link" priority="12" numLanes="1" speed="22.22" allow="private emergency authority army vip passenger hov taxi bus coach delivery truck trailer motorcycle evehicle custom1 custom2" oneway="1"/>
    <type id="highway.path" priority="1" numLanes="1" speed="2.78" allow="bicycle pedestrian" oneway="1" width="2.00"/>
    <type id="highway.pedestrian" priority="1" numLanes="1" speed="2.78" allow="pedestrian" oneway="1" width="2.00"/>
    <type id="highway.primary" priority="9" numLanes="2" speed="27.78" disallow="tram rail_urban rail rail_electric ship" oneway="0"/>
    <type id="highway.primary_link" priority="8" numLanes="1" speed="22.22" disallow="tram rail_urban rail rail_electric ship" oneway="0"/>
    <type id="highway.raceway" priority="14" numLanes="2" speed="83.33" allow="vip" oneway="0"/>
    <type id="highway.residential" priority="4" numLanes="1" speed="13.89" disallow="tram rail_urban rail rail_electric ship" oneway="0"/>
    <type id="highway.secondary" priority="7" numLanes="2" speed="27.78" disallow="tram rail_urban rail rail_electric ship" oneway="0"/>
    <type id="highway.secondary_link" priority="6" numLanes="1" speed="22.22" disallow="tram rail_urban rail rail_electric ship" oneway="0"/>
    <type id="highway.service" priority="2" numLanes="1" speed="5.56" allow="delivery bicycle pedestrian" oneway="0"/>
    <type id="highway.stairs" priority="1" numLanes="1" speed="1.39" allow="pedestrian" oneway="1" width="2.00"/>
    <type id="highway.step" priority="1" numLanes="1" speed="1.39" allow="pedestrian" oneway="1" width="2.00"/>
    <type id="highway.steps" priority="1" numLanes="1" speed="1.39" allow="pedestrian" oneway="1" width="2.00"/>
    <type id="highway.tertiary" priority="6" numLanes="1" speed="22.22" disallow="tram rail_urban rail rail_electric ship" oneway="0"/>
    <type id="highway.tertiary_link" priority="5" numLanes="1" speed="22.22" disallow="tram rail_urban rail rail_electric ship" oneway="0"/>
    <type id="highway.track" priority="1" numLanes="1" speed="5.56" disallow="tram rail_urban rail rail_electric ship" oneway="0"/>
    <type id="highway.trunk" priority="11" numLanes="2" speed="27.78" disallow="tram rail_urban rail rail_electric bicycle pedestrian ship" oneway="0"/>
    <type id="highway.trunk_link" priority="10" numLanes="1" speed="22.22" disallow="tram rail_urban rail rail_electric bicycle pedestrian ship" oneway="0"/>
    <type id="highway.unclassified" priority="5" numLanes="1" speed="13.89" disallow="tram rail_urban rail rail_electric ship" oneway="0"/>
    <type id="highway.unsurfaced" priority="1" numLanes="1" speed="8.33" disallow="tram rail_urban rail rail_electric ship" oneway="0"/>
    <type id="railway.light_rail" priority="15" numLanes="1" speed="27.78" allow="rail_urban" oneway="1"/>
    <type id="railway.preserved" priority="15" numLanes="1" speed="27.78" allow="rail" oneway="1"/>
    <type id="railway.rail" priority="15" numLanes="1" speed="83.33" allow="rail rail_electric" oneway="1"/>
    <type id="railway.subway" priority="15" numLanes="1" speed="27.78" allow="rail_urban" oneway="1"/>
    <type id="railway.tram" priority="15" numLanes="1" speed="13.89" allow="tram" oneway="1"/>

    <edge id=":1562060908_0" function="internal">
        <lane id=":1562060908_0_0" index="0" disallow="tram rail_urban rail rail_electric ship" speed="3.65" length="4.67" shape="551.89,327.41 552.23,326.00 552.84,325.35 553.73,325.45 554.90,326.30"/>
    </edge>
    <edge id=":1570463027_0" function="internal">
        <lane id=":1570463027_0_0" index="0" disallow="tram rail_urban rail rail_electric ship" speed="22.22" length="22.21" shape="1046.12,680.20 1052.29,682.67 1056.93,683.55 1061.57,683.77 1067.75,684.26"/>
    </edge>
    <edge id=":1570463027_1" function="internal">
        <lane id=":1570463027_1_0" index="0" disallow="tram rail_urban rail rail_electric ship" speed="22.22" length="23.24" shape="1044.73,683.09 1051.25,685.69 1056.22,686.66 1061.09,686.93 1067.35,687.43"/>
    </edge>
    <edge id=":1570463027_2" function="internal">
        <lane id=":1570463027_2_0" index="0" disallow="tram rail_urban rail rail_electric ship" speed="18.05" length="23.73" shape="1043.35,685.97 1050.78,688.75 1057.07,690.00 1062.26,690.61 1066.34,691.44"/>
    </edge>
    <edge id=":1570463029_0" function="internal">
        <lane id=":1570463029_0_0" index="0" disallow="tram rail_urban rail rail_electric ship" speed="14.38" length="16.32" shape="1082.61,686.11 1086.80,687.02 1089.80,687.95 1092.64,688.08 1096.34,686.58"/>
        <lane id=":1570463029_0_1" index="1" disallow="tram rail_urban rail rail_electric ship" speed="15.35" length="16.32" shape="1082.22,689.28 1087.01,690.26 1090.45,691.16 1093.71,691.14 1097.94,689.34"/>
        <lane id=":1570463029_0_2" index="2" disallow="tram rail_urban rail rail_electric ship" speed="16.29" length="16.32" shape="1082.22,689.28 1087.53,690.80 1091.30,692.76 1094.86,693.68 1099.55,692.11"/>
    </edge>
    <edge id=":1570463029_3" function="internal">
        <lane id=":1570463029_3_0" index="0" disallow="tram rail_urban rail rail_electric ship" speed="27.78" length="8.70" shape="1090.01,690.74 1092.32,690.14 1094.06,690.21 1095.75,690.19 1097.94,689.34"/>
        <lane id=":1570463029_3_1" index="1" disallow="tram rail_urban rail rail_electric ship" speed="27.78" length="8.70" shape="1091.11,693.75 1093.57,693.09 1095.42,693.11 1097.22,693.04 1099.55,692.11"/>
        <lane id=":1570463029_3_2" index="2" disallow="tram rail_urban rail rail_electric ship" speed="27.78" length="8.70" shape="1092.21,696.76 1094.82,696.04 1096.77,696.01 1098.68,695.89 1101.15,694.88"/>
    </edge>
    <edge id=":1570463036_0" function="internal">
        <lane id=":1570463036_0_0" index="0" disallow="tram rail_urban rail rail_electric ship" speed="15.74" length="20.96" shape="1069.42,692.50 1073.27,693.49 1077.86,693.77 1083.33,693.00 1089.83,690.82"/>
    </edge>
    <edge id=":1570463036_1" function="internal">
        <lane id=":1570463036_1_0" index="0" disallow="tram rail_urban rail rail_electric ship" speed="13.89" length="30.28" shape="1069.42,692.50 1075.36,694.04 1084.21,695.81 1093.11,697.21 1099.20,697.62"/>
    </edge>
    <edge id=":1570463036_2" function="internal">
        <lane id=":1570463036_2_0" index="0" disallow="tram rail_urban rail rail_electric ship" speed="18.05" length="24.33" shape="1069.42,692.50 1074.33,694.23 1080.88,696.60 1087.38,699.08 1092.17,701.12"/>
    </edge>
    <edge id=":1570463036_3" function="internal">
        <lane id=":1570463036_3_0" index="0" disallow="tram rail_urban rail rail_electric ship" speed="27.78" length="22.65" shape="1069.24,696.48 1075.64,695.39 1080.25,695.62 1084.77,695.62 1090.93,693.83"/>
        <lane id=":1570463036_3_1" index="1" disallow="tram rail_urban rail rail_electric ship" speed="27.78" length="22.65" shape="1069.24,696.48 1075.94,695.83 1080.80,697.15 1085.58,698.22 1092.02,696.84"/>
    </edge>
    <edge id=":1570463036_5" function="internal">
        <lane id=":1570463036_5_0" index="0" disallow="tram rail_urban rail rail_electric ship" speed="20.84" length="30.28" shape="1069.24,696.48 1079.30,694.96 1087.75,695.63 1094.44,697.01 1099.20,697.62"/>
    </edge>
    <edge id=":1570463036_6" function="internal">
        <lane id=":1570463036_6_0" index="0" disallow="tram rail_urban rail rail_electric ship" speed="16.46" length="22.77" shape="1069.97,699.60 1077.32,698.23 1083.39,698.39 1088.31,699.53 1092.17,701.12"/>
    </edge>
    <edge id=":1570463047_0" function="internal">
        <lane id=":1570463047_0_0" index="0" disallow="tram rail_urban rail rail_electric ship" speed="27.78" length="7.76" shape="1157.12,701.25 1155.51,702.28 1154.97,703.72 1154.51,705.34 1153.14,706.89"/>
        <lane id=":1570463047_0_1" index="1" disallow="tram rail_urban rail rail_electric ship" speed="27.78" length="7.76" shape="1155.74,698.34 1154.03,699.49 1153.41,700.98 1152.86,702.62 1151.37,704.22"/>
        <lane id=":1570463047_0_2" index="2" disallow="tram rail_urban rail rail_electric ship" speed="27.78" length="7.76" shape="1154.37,695.43 1152.54,696.64 1151.83,698.18 1151.20,699.88 1149.60,701.55"/>
        <lane id=":1570463047_0_3" index="3" disallow="tram rail_urban rail rail_electric ship" speed="27.78" length="7.76" shape="1154.37,695.43 1152.31,696.21 1150.95,696.86 1149.66,697.66 1147.83,698.89"/>
        <lane id=":1570463047_0_4" index="4" disallow="tram rail_urban rail rail_electric ship" speed="27.78" length="7.76" shape="1154.37,695.43 1151.90,695.82 1150.05,695.49 1148.27,695.32 1146.06,696.22"/>
    </edge>
    <edge id=":1570463051_0" function="internal">
        <lane id=":1570463051_0_0" index="0" disallow="tram rail_urban rail rail_electric ship" speed="27.78" length="10.99" shape="1047.82,706.06 1057.78,700.85"/>
        <lane id=":1570463051_0_1" index="1" disallow="tram rail_urban rail rail_electric ship" speed="27.78" length="10.99" shape="1049.33,708.88 1059.06,703.78"/>
        <lane id=":1570463051_0_2" index="2" disallow="tram rail_urban rail rail_electric ship" speed="27.78" length="10.99" shape="1050.85,711.70 1060.35,706.71"/>
    </edge>
    <edge id=":1570463051_3" function="internal">
        <lane id=":1570463051_3_0" index="0" disallow="tram rail_urban rail rail_electric ship" speed="11.07" length="11.06" shape="1054.05,714.45 1055.72,710.01 1057.11,706.75 1058.23,704.67 1059.06,703.78"/>
        <lane id=":1570463051_3_1" index="1" disallow="tram rail_urban rail rail_electric ship" speed="10.31" length="11.06" shape="1054.05,714.45 1055.24,711.75 1056.69,709.56 1058.39,707.88 1060.35,706.71"/>
    </edge>
    <edge id=":1570463068_0" function="internal">
        <lane id=":1570463068_0_0" index="0" disallow="tram rail_urban rail rail_electric ship" speed="25.00" length="39.69" shape="1115.11,732.56 1103.58,740.34 1094.03,747.04 1087.21,752.52 1083.84,756.70"/>
    </edge>
    <edge id=":1570463068_1" function="internal">
        <lane id=":1570463068_1_0" index="0" disallow="tram rail_urban rail rail_electric ship" speed="27.78" length="40.08" shape="1115.11,732.56 1105.27,739.83 1098.45,745.04 1091.03,748.74 1079.39,751.50"/>
        <lane id=":1570463068_1_1" index="1" disallow="tram rail_urban rail rail_electric ship" speed="27.78" length="40.08" shape="1113.31,729.91 1103.58,737.07 1096.82,742.17 1089.47,745.79 1077.96,748.50"/>
        <lane id=":1570463068_1_2" index="2" disallow="tram rail_urban rail rail_electric ship" speed="27.78" length="40.08" shape="1111.52,727.26 1101.90,734.32 1095.19,739.31 1087.91,742.84 1076.53,745.49"/>
        <lane id=":1570463068_1_3" index="3" disallow="tram rail_urban rail rail_electric ship" speed="27.78" length="40.08" shape="1109.73,724.61 1100.21,731.56 1093.57,736.45 1086.35,739.88 1075.09,742.49"/>
        <lane id=":1570463068_1_4" index="4" disallow="tram rail_urban rail rail_electric ship" speed="27.78" length="40.08" shape="1107.94,721.96 1098.52,728.80 1091.94,733.58 1084.78,736.93 1073.66,739.48"/>
    </edge>
    <edge id=":1570463068_6" function="internal">
        <lane id=":1570463068_6_0" index="0" disallow="tram rail_urban rail rail_electric ship" speed="22.22" length="42.86" shape="1102.94,718.36 1099.90,725.78 1093.80,737.64 1087.50,749.44 1083.84,756.70"/>
    </edge>
    <edge id=":1570463068_7" function="internal">
        <lane id=":1570463068_7_0" index="0" disallow="tram rail_urban rail rail_electric ship" speed="15.17" length="39.68" shape="1102.94,718.36 1099.97,728.81 1094.57,736.81 1086.76,742.37 1076.53,745.49"/>
        <lane id=":1570463068_7_1" index="1" disallow="tram rail_urban rail rail_electric ship" speed="14.95" length="39.68" shape="1102.94,718.36 1100.06,727.37 1094.47,734.40 1086.14,739.43 1075.09,742.49"/>
        <lane id=":1570463068_7_2" index="2" disallow="tram rail_urban rail rail_electric ship" speed="14.76" length="39.68" shape="1102.94,718.36 1100.16,725.94 1094.36,731.98 1085.52,736.50 1073.66,739.48"/>
    </edge>
    <edge id=":1570463091_0" function="internal">
        <lane id=":1570463091_0_0" index="0" disallow="tram rail_urban rail rail_electric ship" speed="27.78" length="10.58" shape="1069.88,753.08 1066.64,753.38 1064.40,753.13 1062.15,752.68 1058.88,752.37"/>
        <lane id=":1570463091_0_1" index="1" disallow="tram rail_urban rail rail_electric ship" speed="27.78" length="10.58" shape="1069.36,749.92 1066.19,750.20 1064.01,749.94 1061.81,749.48 1058.61,749.16"/>
        <lane id=":1570463091_0_2" index="2" disallow="tram rail_urban rail rail_electric ship" speed="27.78" length="10.58" shape="1068.83,746.77 1065.75,747.03 1063.62,746.75 1061.47,746.27 1058.35,745.95"/>
        <lane id=":1570463091_0_3" index="3" disallow="tram rail_urban rail rail_electric ship" speed="27.78" length="10.58" shape="1068.31,743.61 1065.30,743.85 1063.22,743.55 1061.14,743.06 1058.09,742.74"/>
        <lane id=":1570463091_0_4" index="4" disallow="tram rail_urban rail rail_electric ship" speed="27.78" length="10.58" shape="1067.79,740.45 1064.85,740.68 1062.83,740.36 1060.80,739.86 1057.82,739.53"/>
    </edge>
    <edge id=":1570463091_5" function="internal">
        <lane id=":1570463091_5_0" index="0" disallow="tram rail_urban rail rail_electric ship" speed="10.10" length="10.32" shape="1067.79,740.45 1066.30,740.31 1064.32,739.45 1061.84,737.90 1058.85,735.64"/>
    </edge>
    <edge id=":1570463096_0" function="internal">
        <lane id=":1570463096_0_0" index="0" disallow="tram rail_urban rail rail_electric ship" speed="6.10" length="9.06" shape="972.51,768.02 971.96,765.52 970.75,763.97 968.87,763.37 966.33,763.73"/>
    </edge>
    <edge id=":1570463096_1" function="internal">
        <lane id=":1570463096_1_0" index="0" disallow="tram rail_urban rail rail_electric ship" speed="7.68" length="15.05" shape="975.70,767.78 974.79,763.62 972.77,761.05 969.65,760.06 965.44,760.66"/>
    </edge>
    <edge id=":1570463096_2" function="internal">
        <lane id=":1570463096_2_0" index="0" disallow="tram rail_urban rail rail_electric ship" speed="8.37" length="18.11" shape="975.70,767.78 974.64,762.21 972.42,758.65 969.06,757.11 964.54,757.59"/>
    </edge>
    <edge id=":1570463096_3" function="internal">
        <lane id=":1570463096_3_0" index="0" disallow="tram rail_urban rail rail_electric ship" speed="27.78" length="14.54" shape="980.29,759.66 966.33,763.73"/>
        <lane id=":1570463096_3_1" index="1" disallow="tram rail_urban rail rail_electric ship" speed="27.78" length="14.54" shape="979.40,756.59 965.44,760.66"/>
        <lane id=":1570463096_3_2" index="2" disallow="tram rail_urban rail rail_electric ship" speed="27.78" length="14.54" shape="978.50,753.52 964.54,757.59"/>
        <lane id=":1570463096_3_3" index="3" disallow="tram rail_urban rail rail_electric ship" speed="27.78" length="14.54" shape="977.60,750.44 963.65,754.52"/>
    </edge>
    <edge id=":1570463115_0" function="internal">
        <lane id=":1570463115_0_0" index="0" disallow="tram rail_urban rail rail_electric ship" speed="8.94" length="9.78" shape="1067.99,796.67 1066.68,798.82 1065.97,801.08 1065.88,803.44 1066.40,805.91"/>
    </edge>
    <edge id=":1570463115_1" function="internal">
        <lane id=":1570463115_1_0" index="0" disallow="tram rail_urban rail rail_electric ship" speed="9.67" length="11.53" shape="1067.99,796.67 1065.60,800.03 1064.03,802.86 1063.28,805.15 1063.35,806.91"/>
    </edge>
    <edge id=":1570463115_2" function="internal">
        <lane id=":1570463115_2_0" index="0" disallow="tram rail_urban rail rail_electric ship" speed="27.78" length="10.68" shape="1063.29,795.80 1066.40,805.91"/>
        <lane id=":1570463115_2_1" index="1" disallow="tram rail_urban rail rail_electric ship" speed="27.78" length="10.68" shape="1060.23,796.73 1063.35,806.91"/>
        <lane id=":1570463115_2_2" index="2" disallow="tram rail_urban rail rail_electric ship" speed="27.78" length="10.68" shape="1057.16,797.66 1060.31,807.90"/>
        <lane id=":1570463115_2_3" index="3" disallow="tram rail_urban rail rail_electric ship" speed="27.78" length="10.68" shape="1054.10,798.58 1057.27,808.89"/>
    </edge>
    <edge id=":1570463137_0" function="internal">
        <lane id=":1570463137_0_0" index="0" disallow="tram rail_urban rail rail_electric ship" speed="8.13" length="13.97" shape="29.00,1030.72 27.14,1032.05 26.20,1034.62 26.18,1038.44 27.07,1043.49"/>
    </edge>
    <edge id=":1570463137_1" function="internal">
        <lane id=":1570463137_1_0" index="0" disallow="tram rail_urban rail rail_electric ship" speed="9.34" length="18.78" shape="28.06,1027.66 24.99,1029.56 23.28,1032.95 22.94,1037.84 23.95,1044.23"/>
    </edge>
    <edge id=":1570574334_0" function="internal">
        <lane id=":1570574334_0_0" index="0" disallow="tram rail_urban rail rail_electric ship" speed="25.00" length="20.51" shape="1529.93,324.23 1542.10,340.60"/>
        <lane id=":1570574334_0_1" index="1" disallow="tram rail_urban rail rail_electric ship" speed="25.00" length="20.51" shape="1527.36,326.14 1539.53,342.51"/>
        <lane id=":1570574334_0_2" index="2" disallow="tram rail_urban rail rail_electric ship" speed="25.00" length="20.51" shape="1527.36,326.14 1530.51,331.22 1532.09,335.18 1533.70,339.20 1536.96,344.42"/>
    </edge>
    <edge id=":1570574334_3" function="internal">
        <lane id=":1570574334_3_0" index="0" disallow="tram rail_urban rail rail_electric ship" speed="3.65" length="2.57" shape="1527.36,326.14 1527.43,327.58 1527.03,328.38 1526.80,328.42"/>
    </edge>
    <edge id=":1570574334_8" function="internal">
        <lane id=":1570574334_8_0" index="0" disallow="tram rail_urban rail rail_electric ship" speed="3.65" length="2.10" shape="1526.80,328.42 1526.15,328.54 1524.79,328.05"/>
    </edge>
    <edge id=":1570574334_4" function="internal">
        <lane id=":1570574334_4_0" index="0" disallow="tram rail_urban rail rail_electric ship" speed="6.70" length="9.25" shape="1520.78,338.04 1522.60,336.10 1523.45,334.11 1523.32,332.06 1522.22,329.96"/>
    </edge>
    <edge id=":1570574334_5" function="internal">
        <lane id=":1570574334_5_0" index="0" disallow="tram rail_urban rail rail_electric ship" speed="8.16" length="14.21" shape="1522.82,340.51 1525.55,337.57 1526.79,334.51 1526.54,331.34 1524.79,328.05"/>
    </edge>
    <edge id=":1570574334_6" function="internal">
        <lane id=":1570574334_6_0" index="0" disallow="tram rail_urban rail rail_electric ship" speed="7.83" length="14.07" shape="1524.86,342.97 1528.18,340.94 1531.30,340.51 1534.23,341.67 1536.96,344.42"/>
    </edge>
    <edge id=":1570574334_7" function="internal">
        <lane id=":1570574334_7_0" index="0" disallow="tram rail_urban rail rail_electric ship" speed="6.29" length="8.71" shape="1526.91,345.43 1528.96,344.18 1530.89,343.91 1532.70,344.63 1534.39,346.33"/>
    </edge>
    <edge id=":1570574351_0" function="internal">
        <lane id=":1570574351_0_0" index="0" disallow="tram rail_urban rail rail_electric ship" speed="6.54" length="9.08" shape="869.65,763.16 870.70,765.42 872.22,766.82 874.20,767.34 876.65,766.99"/>
    </edge>
    <edge id=":1570574351_1" function="internal">
        <lane id=":1570574351_1_0" index="0" disallow="tram rail_urban rail rail_electric ship" speed="7.36" length="11.76" shape="869.65,763.16 871.10,766.76 872.90,769.12 875.05,770.22 877.54,770.07"/>
    </edge>
    <edge id=":1570574351_2" function="internal">
        <lane id=":1570574351_2_0" index="0" disallow="tram rail_urban rail rail_electric ship" speed="3.65" length="4.67" shape="869.65,763.16 869.23,764.54 868.58,765.15 867.70,765.00 866.59,764.08"/>
    </edge>
    <edge id=":1570574351_3" function="internal">
        <lane id=":1570574351_3_0" index="0" disallow="tram rail_urban rail rail_electric ship" speed="6.49" length="9.03" shape="862.82,771.03 865.08,770.01 866.46,768.51 866.96,766.53 866.59,764.08"/>
    </edge>
    <edge id=":1570574351_4" function="internal">
        <lane id=":1570574351_4_0" index="0" disallow="tram rail_urban rail rail_electric ship" speed="27.78" length="14.41" shape="862.82,771.03 876.65,766.99"/>
        <lane id=":1570574351_4_1" index="1" disallow="tram rail_urban rail rail_electric ship" speed="27.78" length="14.41" shape="863.71,774.10 877.54,770.07"/>
        <lane id=":1570574351_4_2" index="2" disallow="tram rail_urban rail rail_electric ship" speed="27.78" length="14.41" shape="864.61,777.17 878.44,773.14"/>
        <lane id=":1570574351_4_3" index="3" disallow="tram rail_urban rail rail_electric ship" speed="27.78" length="14.41" shape="865.50,780.25 879.34,776.21"/>
    </edge>
    <edge id=":1570574382_0" function="internal">
        <lane id=":1570574382_0_0" index="0" disallow="tram rail_urban rail rail_electric ship" speed="6.54" length="8.91" shape="205.18,956.57 206.25,958.77 207.76,960.13 209.71,960.65 212.10,960.32"/>
    </edge>
    <edge id=":1570574382_1" function="internal">
        <lane id=":1570574382_1_0" index="0" disallow="tram rail_urban rail rail_electric ship" speed="7.36" length="11.56" shape="205.18,956.57 206.68,960.11 208.48,962.42 210.58,963.52 212.99,963.39"/>
    </edge>
    <edge id=":1570574382_2" function="internal">
        <lane id=":1570574382_2_0" index="0" disallow="tram rail_urban rail rail_electric ship" speed="27.78" length="10.95" shape="201.58,963.36 212.10,960.32"/>
        <lane id=":1570574382_2_1" index="1" disallow="tram rail_urban rail rail_electric ship" speed="27.78" length="10.95" shape="202.47,966.43 212.99,963.39"/>
        <lane id=":1570574382_2_2" index="2" disallow="tram rail_urban rail rail_electric ship" speed="27.78" length="10.95" shape="203.36,969.51 213.88,966.46"/>
        <lane id=":1570574382_2_3" index="3" disallow="tram rail_urban rail rail_electric ship" speed="27.78" length="10.95" shape="204.25,972.58 214.77,969.54"/>
    </edge>
    <edge id=":1573794602_0" function="internal">
        <lane id=":1573794602_0_0" index="0" disallow="tram rail_urban rail rail_electric ship" speed="6.58" length="8.79" shape="1471.50,544.55 1469.87,546.22 1469.13,548.07 1469.29,550.09 1470.35,552.28"/>
    </edge>
    <edge id=":1573794602_1" function="internal">
        <lane id=":1573794602_1_0" index="0" disallow="tram rail_urban rail rail_electric ship" speed="27.78" length="10.73" shape="1471.50,544.55 1463.01,551.07"/>
        <lane id=":1573794602_1_1" index="1" disallow="tram rail_urban rail rail_electric ship" speed="27.78" length="10.73" shape="1469.56,542.00 1461.05,548.54"/>
        <lane id=":1573794602_1_2" index="2" disallow="tram rail_urban rail rail_electric ship" speed="27.78" length="10.73" shape="1467.62,539.46 1459.10,546.01"/>
    </edge>
    <edge id=":1573794606_0" function="internal">
        <lane id=":1573794606_0_0" index="0" disallow="tram rail_urban rail rail_electric ship" speed="27.78" length="8.70" shape="1334.99,650.21 1328.30,655.77"/>
    </edge>
    <edge id=":1573794606_1" function="internal">
        <lane id=":1573794606_1_0" index="0" disallow="tram rail_urban rail rail_electric ship" speed="21.75" length="8.58" shape="1334.99,650.21 1332.59,651.54 1330.63,651.73 1328.51,651.62 1325.66,652.06"/>
        <lane id=":1573794606_1_1" index="1" disallow="tram rail_urban rail rail_electric ship" speed="20.45" length="8.58" shape="1333.03,647.69 1330.90,648.81 1329.16,648.86 1327.28,648.65 1324.76,648.98"/>
        <lane id=":1573794606_1_2" index="2" disallow="tram rail_urban rail rail_electric ship" speed="19.08" length="8.58" shape="1331.06,645.16 1329.22,646.07 1327.70,645.99 1326.05,645.68 1323.86,645.91"/>
    </edge>
    <edge id=":1701377591_0" function="internal">
        <lane id=":1701377591_0_0" index="0" disallow="tram rail_urban rail rail_electric ship" speed="27.78" length="8.21" shape="1047.84,819.21 1046.85,817.02 1045.83,815.67 1044.80,814.32 1043.81,812.12"/>
        <lane id=":1701377591_0_1" index="1" disallow="tram rail_urban rail rail_electric ship" speed="27.78" length="8.21" shape="1047.84,819.21 1047.33,816.86 1047.35,815.16 1047.37,813.47 1046.85,811.12"/>
        <lane id=":1701377591_0_2" index="2" disallow="tram rail_urban rail rail_electric ship" speed="27.78" length="8.21" shape="1050.88,818.21 1050.37,815.85 1050.39,814.16 1050.40,812.46 1049.89,810.11"/>
        <lane id=":1701377591_0_3" index="3" disallow="tram rail_urban rail rail_electric ship" speed="27.78" length="8.21" shape="1053.92,817.21 1053.40,814.85 1053.42,813.15 1053.44,811.46 1052.92,809.10"/>
    </edge>
    <edge id=":1829591308_0" function="internal">
        <lane id=":1829591308_0_0" index="0" disallow="tram rail_urban rail rail_electric ship" speed="27.78" length="11.12" shape="1146.16,1083.56 1141.67,1073.25"/>
        <lane id=":1829591308_0_1" index="1" disallow="tram rail_urban rail rail_electric ship" speed="27.78" length="11.12" shape="1149.06,1082.21 1144.62,1072.02"/>
        <lane id=":1829591308_0_2" index="2" disallow="tram rail_urban rail rail_electric ship" speed="27.78" length="11.12" shape="1151.96,1080.86 1147.57,1070.78"/>
    </edge>
    <edge id=":1829591308_3" function="internal">
        <lane id=":1829591308_3_0" index="0" disallow="tram rail_urban rail rail_electric ship" speed="6.02" length="9.07" shape="1137.99,1079.70 1140.48,1078.98 1141.92,1077.67 1142.32,1075.76 1141.67,1073.25"/>
    </edge>
    <edge id=":1834948819_0" function="internal">
        <lane id=":1834948819_0_0" index="0" disallow="tram rail_urban rail rail_electric ship" speed="11.11" length="10.70" shape="997.41,1104.30 996.61,1093.62"/>
        <lane id=":1834948819_0_1" index="1" disallow="tram rail_urban rail rail_electric ship" speed="11.11" length="10.70" shape="1000.60,1104.06 999.81,1093.38"/>
    </edge>
    <edge id=":1834948819_2" function="internal">
        <lane id=":1834948819_2_0" index="0" disallow="tram rail_urban rail rail_electric ship" speed="6.57" length="8.79" shape="1000.60,1104.06 1000.76,1101.72 1001.66,1099.94 1003.27,1098.73 1005.61,1098.07"/>
    </edge>
    <edge id=":1908472456_0" function="internal">
        <lane id=":1908472456_0_0" index="0" disallow="tram rail_urban rail rail_electric ship" speed="3.65" length="4.67" shape="800.59,551.85 801.00,550.47 801.65,549.85 802.53,549.99 803.65,550.90"/>
    </edge>
    <edge id=":21742662_0" function="internal">
        <lane id=":21742662_0_0" index="0" disallow="tram rail_urban rail rail_electric ship" speed="6.51" length="9.03" shape="378.00,515.39 376.99,513.13 375.49,511.74 373.52,511.21 371.07,511.56"/>
    </edge>
    <edge id=":21742662_1" function="internal">
        <lane id=":21742662_1_0" index="0" disallow="tram rail_urban rail rail_electric ship" speed="7.33" length="11.73" shape="381.08,514.50 380.35,510.70 380.59,507.77 381.82,505.70 384.02,504.49"/>
    </edge>
    <edge id=":21742662_2" function="internal">
        <lane id=":21742662_2_0" index="0" disallow="tram rail_urban rail rail_electric ship" speed="22.22" length="14.40" shape="384.91,507.57 371.07,511.56"/>
    </edge>
    <edge id=":21742662_3" function="internal">
        <lane id=":21742662_3_0" index="0" disallow="tram rail_urban rail rail_electric ship" speed="3.65" length="2.34" shape="384.91,507.57 383.53,507.13 382.93,506.47"/>
    </edge>
    <edge id=":21742662_6" function="internal">
        <lane id=":21742662_6_0" index="0" disallow="tram rail_urban rail rail_electric ship" speed="3.65" length="2.34" shape="382.93,506.47 383.09,505.59 384.02,504.49"/>
    </edge>
    <edge id=":21742662_4" function="internal">