<?xml version="1.0" encoding="UTF-8"?>
<routes xmlns:xsi="http://www.w3.org/2001/XMLSchema-instance" xsi:noNamespaceSchemaLocation="http://sumo.dlr.de/xsd/routes_file.xsd">
    <route id="f0a" edges="143525633 143525649#1 576484873#0 143525651#0 143525646#0 143525645#0 576484872 143525644 143525638 143519876 641158909#0" /> <!-- up to 500 cars -->
    <route id="f0*" edges="673384660#0 143525645#0 576484872 143525644 143525638 143519876 641158909#0" /> <!-- up to 50 cars -->
    <route id="f0b" edges="143818841#0 160338253#0 160338253#3 143519861#0 143519870#0 544989444#0 143519871 143519868 143519856#0 576484870 262764311#0 181344171#0 143519872#0 143519853" /> <!-- up to 150 cars -->
    <route id="f1" edges="143525633 143525649#1 576484873#0 143525651#0 143525646#0 143525645#0 576484872 31380964#0" /> <!-- up to 200 cars -->
    <route id="f2a" edges="299168659#0 544989443#0 178568773 143525644 143525638 143519876 641158909#0" /> <!-- up to 40 cars -->
    <route id="f2b" edges="143818841#0 160338253#0 160338253#3 143519861#0 143519870#0 544989444#0 143519871 143519868 31380964#0" /> <!-- up to 150 cars -->
    <route id="f3a" edges="299168659#0 544989443#0 178568773 86337054 71393231#0 262764315 185184926#0 251949580" /> <!-- up to 250 cars -->
    <route id="f3b" edges="346882568 172005094#0 262764319#0 181985395#0 262764316 31380964#0" /> <!-- up to 150 cars, ? to TL -->
    <route id="f4" edges="143525633 143525649#1 576484873#0 143525651#0 181344179#0 181344178#0 129212177#0 129212177#4 172005094#0" /> <!-- up to 30 cars, ? to TL -->
    <route id="f4*" edges="181344179#0 181344178#0 129212177#0 129212177#4 172005094#0" /> <!-- up to 55 cars -->
    <route id="f5" edges="673384660#0 262764311#0 181344171#0 143519872#0 143519853" /> <!-- up to 70 cars -->
    <route id="f6a" edges="143525633 143525649#1 576484873#0 31371344#0 31368584#0" /> <!-- up to 50 cars -->
    <route id="f6b" edges="673384660#0 262764311#0 181344171#0 121643106#0" /> <!-- up to 40 cars -->

    <route id="f2c" edges="172005094#0 262764319#0 181985395#0 262764316 143519856#0 576484870 262764311#0 181344171#0 143519872#0 143519853" /> <!-- up to 50 cars -->
    <route id="f2d" edges="299168659#0 544989443#0 178568773 143519856#0 576484870 262764311#0 181344171#0 143519872#0 143519853" /> <!-- up to 50 cars -->
    <route id="f8a" edges="143525645#0 576484872 143525644 143525638 143519876 641158909#0" /> <!-- up to 20 cars -->
    <route id="f8b" edges="143525645#0 576484872 31380964#0" /> <!-- up to 20 cars -->

    <!-- <flow id="test1" type="CAR" begin="0" end="0" route="f6b" number="50" departPos="free" departLane="allowed" /> -->
</routes>
