<?xml version="1.0" encoding="UTF-8"?>

<!-- generated on Sun Mar 24 19:22:40 2019 by Eclipse SUMO polyconvert Version 1.1.0
<configuration xmlns:xsi="http://www.w3.org/2001/XMLSchema-instance" xsi:noNamespaceSchemaLocation="http://sumo.dlr.de/xsd/polyconvertConfiguration.xsd">

    <input>
        <osm-files value="short.osm"/>
    </input>

    <output>
        <output-file value="stops.poly.xml"/>
    </output>

    <projection>
        <proj.scale value="1"/>
        <proj.utm value="true"/>
    </projection>

    <processing>
        <poi-layer-offset value="5"/>
    </processing>

</configuration>
-->

<additional xmlns:xsi="http://www.w3.org/2001/XMLSchema-instance" xsi:noNamespaceSchemaLocation="http://sumo.dlr.de/xsd/additional_file.xsd">
    <location netOffset="0.00,0.00" convBoundary="344382.37,6637331.42,358231.74,6655685.89" origBoundary="30.211869,59.849040,30.468168,60.012708" projParameter="+proj=utm +zone=36 +ellps=WGS84 +datum=WGS84 +units=m +no_defs"/>

    <poly id="101293595" type="building" color="255,230,230" fill="1" layer="-1.00" shape="352680.202523,6646668.151984 352670.135198,6646659.411406 352681.413685,6646652.629664 352691.157365,6646663.780085 352689.566400,6646665.136696 352688.570873,6646665.990199 352686.509278,6646663.820353 352680.202523,6646668.151984"/>
    <poly id="101293901" type="building" color="255,230,230" fill="1" layer="-1.00" shape="352654.821380,6646808.240500 352639.779530,6646784.881969 352619.370404,6646753.208869 352641.807025,6646736.082358 352643.341198,6646738.496170 352653.383285,6646754.328097 352648.418389,6646757.647545 352646.249614,6646759.105246 352643.093054,6646754.169654 352632.569146,6646762.326163 352634.809425,6646765.469921 352639.736163,6646761.895559 352650.124133,6646778.404894 352660.189511,6646794.403133 352668.582940,6646788.806561 352673.635414,6646785.439054 352678.870037,6646793.101273 352669.929334,6646798.864561 352654.821380,6646808.240500"/>
    <poly id="103591279" type="building" color="255,230,230" fill="1" layer="-1.00" shape="352062.669870,6646895.145227 352080.003436,6646890.114849 352098.863224,6646884.633296 352103.758507,6646901.126843 352067.565752,6646911.649859 352062.669870,6646895.145227"/>
    <poly id="104867069" type="building" color="255,230,230" fill="1" layer="-1.00" shape="351526.729618,6647050.213727 351529.297065,6647061.760950 351531.864499,6647073.308174 351513.064920,6647078.857184 351510.905916,6647069.679375 351510.093657,6647066.032946 351507.525704,6647054.474605 351510.126695,6647053.901884 351526.729618,6647050.213727"/>
    <poly id="104867074" type="building" color="255,230,230" fill="1" layer="-1.00" shape="351510.126695,6647053.901884 351506.562567,6647037.879501 351503.933368,6647026.189838 351506.208160,6647025.574474 351520.380440,6647021.682919 351526.729618,6647050.213727 351510.126695,6647053.901884"/>
    <poly id="113279530" type="highway" color="26,26,26" fill="0" layer="10.00" shape="352160.654672,6646755.904483 352160.451230,6646755.154517 352155.246268,6646736.510470"/>
    <poly id="113279531" type="highway" color="26,26,26" fill="0" layer="10.00" shape="352099.736125,6646773.447287 352094.695383,6646755.978486"/>
    <poly id="113279532" type="highway" color="26,26,26" fill="0" layer="10.00" shape="352127.863640,6646765.343169 352127.725849,6646764.835847 352121.419641,6646742.724092"/>
    <poly id="113299707" type="highway" color="26,26,26" fill="0" layer="10.00" shape="351863.922001,6646841.374015 351858.803859,6646822.838314"/>
    <poly id="113299710" type="highway" color="26,26,26" fill="0" layer="10.00" shape="352066.359024,6646783.054910 352061.900200,6646765.730089"/>
    <poly id="113299712" type="highway" color="26,26,26" fill="0" layer="10.00" shape="352032.678403,6646792.764180 352028.949676,6646778.866225"/>
    <poly id="113299715" type="highway" color="26,26,26" fill="0" layer="10.00" shape="351897.762471,6646831.623314 351893.523684,6646813.944235"/>
    <poly id="113458820" type="building" color="255,230,230" fill="1" layer="-1.00" shape="352344.583766,6646861.889909 352338.370302,6646863.776911 352340.145690,6646870.684972 352346.933758,6646869.176369 352344.583766,6646861.889909"/>
    <poly id="113458822" type="building" color="255,230,230" fill="1" layer="-1.00" shape="352319.770779,6646867.518803 352325.953242,6646865.276255 352319.648453,6646844.847600 352313.151355,6646847.058132 352319.770779,6646867.518803"/>
    <poly id="113458823" type="amenity" color="237,199,199" fill="1" layer="-1.00" shape="352245.715659,6646823.163428 352250.398680,6646821.761080 352251.249492,6646824.569953 352260.125731,6646821.829444 352256.942973,6646812.190523 352263.848541,6646810.119651 352266.580502,6646809.597985 352277.440344,6646844.036629 352269.337157,6646847.359377 352271.604495,6646855.373755 352276.022583,6646871.005824 352246.242177,6646881.415760 352242.143502,6646869.438820 352244.972064,6646868.255512 352243.010864,6646862.302539 352246.365610,6646862.525214 352250.825425,6646861.979072 352253.950951,6646860.806199 352257.768529,6646858.189809 352261.097958,6646853.998692 352263.006103,6646848.403917 352263.059687,6646843.864324 352261.551721,6646838.751668 352258.688377,6646834.585058 352254.594773,6646831.415241 352250.858815,6646829.914564 352247.355095,6646829.185005 352245.715659,6646823.163428"/>
    <poly id="113458823#1" type="building" color="255,230,230" fill="1" layer="-1.00" shape="352245.715659,6646823.163428 352250.398680,6646821.761080 352251.249492,6646824.569953 352260.125731,6646821.829444 352256.942973,6646812.190523 352263.848541,6646810.119651 352266.580502,6646809.597985 352277.440344,6646844.036629 352269.337157,6646847.359377 352271.604495,6646855.373755 352276.022583,6646871.005824 352246.242177,6646881.415760 352242.143502,6646869.438820 352244.972064,6646868.255512 352243.010864,6646862.302539 352246.365610,6646862.525214 352250.825425,6646861.979072 352253.950951,6646860.806199 352257.768529,6646858.189809 352261.097958,6646853.998692 352263.006103,6646848.403917 352263.059687,6646843.864324 352261.551721,6646838.751668 352258.688377,6646834.585058 352254.594773,6646831.415241 352250.858815,6646829.914564 352247.355095,6646829.185005 352245.715659,6646823.163428"/>
    <poly id="113458827" type="building" color="255,230,230" fill="1" layer="-1.00" shape="352335.005072,6646832.193794 352341.876039,6646853.491739 352344.583766,6646861.889909 352346.933758,6646869.176369 352348.517387,6646874.085359 352356.399427,6646871.529716 352342.144120,6646827.003306 352334.062782,6646829.054103 352335.005072,6646832.193794"/>
    <poly id="113458830" type="building" color="255,230,230" fill="1" layer="-1.00" shape="352380.426630,6646829.967352 352382.693531,6646836.855803 352387.125897,6646835.341004 352384.920895,6646828.461228 352380.426630,6646829.967352"/>
    <poly id="113458837" type="building" color="255,230,230" fill="1" layer="-1.00" shape="352271.604495,6646855.373755 352276.852430,6646853.547517 352290.609264,6646848.750260 352296.533425,6646865.949860 352288.882771,6646867.994703 352290.046097,6646872.184662 352284.861713,6646873.640441 352283.688596,6646869.205607 352281.676541,6646870.099845 352279.125942,6646871.238573 352276.022583,6646871.005824 352271.604495,6646855.373755"/>
    <poly id="113458842" type="building" color="255,230,230" fill="1" layer="-1.00" shape="352318.768305,6646782.194636 352325.236235,6646801.802935 352330.206486,6646800.166247 352338.615368,6646797.489194 352335.469046,6646787.636939 352332.322709,6646777.784687 352327.383721,6646779.364379 352318.768305,6646782.194636"/>
    <poly id="113458846" type="building" color="255,230,230" fill="1" layer="-1.00" shape="352327.458573,6646834.747224 352334.556893,6646855.712769 352341.876039,6646853.491739 352335.005072,6646832.193794 352327.458573,6646834.747224"/>
    <poly id="113458848" type="building" color="255,230,230" fill="1" layer="-1.00" shape="352272.445400,6646790.444579 352278.181099,6646808.944917 352281.367547,6646803.834207 352276.819449,6646789.010018 352272.445400,6646790.444579"/>
    <poly id="113471331" type="building" color="255,230,230" fill="1" layer="-1.00" shape="352000.183198,6646917.055919 351998.729647,6646911.773944 351995.615418,6646899.111207 352011.575949,6646895.005061 352015.125891,6646894.093706 352013.862895,6646887.421676 352025.210395,6646884.224910 352029.559847,6646886.793367 352038.302171,6646912.586850 352026.024997,6646915.898831 352024.471277,6646911.468149 352016.277241,6646913.212010 352009.269957,6646914.551627 352000.183198,6646917.055919"/>
    <poly id="113471332" type="building" color="255,230,230" fill="1" layer="-1.00" shape="352119.047340,6646878.128944 352116.048350,6646865.539558 352118.013173,6646865.003871 352123.321747,6646863.576334 352124.813309,6646867.574745 352120.443898,6646868.842079 352122.518627,6646877.488406 352119.047340,6646878.128944"/>
    <poly id="113471333" type="building" color="255,230,230" fill="1" layer="-1.00" shape="351940.562586,6647029.089551 351949.940753,6647027.443015 351960.941093,6647025.508570 351989.986847,6647020.410073 351990.077375,6647022.112181 351991.581000,6647029.064433 351942.192233,6647036.950925 351940.562586,6647029.089551"/>
    <poly id="113471334" type="building" color="255,230,230" fill="1" layer="-1.00" shape="351876.073786,6646979.876617 351874.913661,6646963.490074 351890.831790,6646962.105341 351891.438199,6646964.812451 351885.491069,6646965.797676 351888.249246,6646978.641833 351876.073786,6646979.876617"/>
    <poly id="113471337" type="building" color="255,230,230" fill="1" layer="-1.00" shape="351834.345205,6646959.875963 351891.629791,6646955.629485 351885.515465,6646933.030988 351864.590209,6646936.244068 351857.235547,6646908.388578 351851.564005,6646910.109766 351855.840527,6646935.847728 351852.859809,6646945.097876 351850.958792,6646950.993625 351833.838271,6646952.671988 351834.345205,6646959.875963"/>
    <poly id="113471341" type="building" color="255,230,230" fill="1" layer="-1.00" shape="351837.702640,6646968.961293 351861.330760,6646967.022166 351863.214253,6646982.889183 351838.582119,6646984.623273 351837.702640,6646968.961293"/>
    <poly id="113471344" type="building" color="255,230,230" fill="1" layer="-1.00" shape="352077.955470,6646975.126524 352075.752283,6646967.466432 352073.738251,6646960.478834 352066.215240,6646962.630532 352069.809826,6646975.140309 352070.427347,6646977.289569 352077.955470,6646975.126524"/>
    <poly id="113471348" type="building" color="255,230,230" fill="1" layer="-1.00" shape="352049.414600,6646850.111501 352050.848700,6646855.048666 352045.328957,6646856.651987 352043.894405,6646851.703694 352049.414600,6646850.111501"/>
    <poly id="113471349" type="building" color="255,230,230" fill="1" layer="-1.00" shape="351841.531989,6646914.993537 351842.745779,6646920.430002 351845.468460,6646919.819201 351848.294360,6646940.631869 351838.610148,6646941.766934 351835.641481,6646916.835011 351841.531989,6646914.993537"/>
    <poly id="113471354" type="tourism" color="207,245,201" fill="1" layer="-2.00" shape="352071.026176,6646916.751214 352085.662837,6646912.419647 352102.167340,6646907.645513 352103.472501,6646908.942274 352104.956624,6646913.453809 352109.043291,6646927.917227 352111.352160,6646941.437248 352115.399922,6646955.768444 352119.779739,6646971.268108 352119.123022,6646976.110553 352118.621095,6646979.787358 352104.175797,6646980.365235 352094.075264,6646977.525106 352086.663780,6646973.094652 352069.648479,6646919.794156 352071.026176,6646916.751214"/>
    <poly id="113471355" type="building" color="255,230,230" fill="1" layer="-1.00" shape="351991.581000,6647029.064433 352014.903276,6647025.644606 352014.157040,6647017.625209 351990.077375,6647022.112181 351991.581000,6647029.064433"/>
    <poly id="113471358" type="building" color="255,230,230" fill="1" layer="-1.00" shape="352110.775336,6647000.023687 352110.395727,6646996.828089 352109.587648,6646989.914865 352136.913749,6646986.714704 352139.715024,6646986.390838 352140.902184,6646996.488537 352120.843533,6646998.840523 352110.775336,6647000.023687"/>
    <poly id="113471361" type="building" color="255,230,230" fill="1" layer="-1.00" shape="351888.017740,6647041.428832 351886.174497,6647026.563568 351901.555077,6647024.197031 351903.408515,6647039.318308 351888.017740,6647041.428832"/>
    <poly id="113471362" type="building" color="255,230,230" fill="1" layer="-1.00" shape="351837.642324,6647017.292892 351837.227022,6647013.073069 351842.948360,6647012.598497 351842.385851,6647007.916332 351841.821112,6647003.178514 351836.079685,6647003.152204 351835.950312,6646999.924295 351873.320239,6646998.426723 351874.455165,6647014.323737 351837.642324,6647017.292892"/>
    <poly id="113471364" type="building" color="255,230,230" fill="1" layer="-1.00" shape="352009.269957,6646914.551627 352020.704963,6646956.034806 352006.725732,6646959.872084 352003.656736,6646948.757184 351994.453651,6646951.288448 351989.921047,6646952.529032 351986.156486,6646938.855522 351990.539621,6646937.654364 351999.859154,6646935.096133 351996.422940,6646922.635813 351995.610843,6646919.680507 351982.384065,6646923.309369 351972.310581,6646886.777477 351982.770278,6646883.905991 351990.573164,6646881.754073 351992.352831,6646888.193589 351986.564136,6646889.785473 351993.057403,6646913.338860 351996.128704,6646912.491242 351998.729647,6646911.773944 352000.183198,6646917.055919 352009.269957,6646914.551627"/>
    <poly id="113471370" type="building" color="255,230,230" fill="1" layer="-1.00" shape="351952.219575,6646958.052168 351959.808208,6646956.142876 351958.171959,6646949.653035 351950.578173,6646951.573685 351952.219575,6646958.052168"/>
    <poly id="113471371" type="building" color="255,230,230" fill="1" layer="-1.00" shape="351839.808772,6647046.359654 351838.959177,6647031.443431 351874.260373,6647028.033165 351875.114052,6647043.194494 351839.808772,6647046.359654"/>
    <poly id="113471373" type="building" color="255,230,230" fill="1" layer="-1.00" shape="352049.992083,6646992.321776 352090.755006,6646987.111927 352092.195295,6646998.358940 352081.301924,6646999.753576 352081.822430,6647003.813122 352078.182150,6647004.282091 352077.954483,6647002.507431 352067.461532,6647003.841492 352067.714425,6647005.826965 352063.522924,6647006.362600 352063.743676,6647008.104091 352052.204600,6647009.580397 352049.992083,6646992.321776"/>
    <poly id="113471375" type="building" color="255,230,230" fill="1" layer="-1.00" shape="351942.872051,6647040.234827 351942.192233,6647036.950925 351940.562586,6647029.089551 351935.756247,6647005.892324 351906.294300,6647012.055884 351907.233236,6647016.500002 351911.840494,6647044.220355 351942.872051,6647040.234827"/>
    <poly id="113471376" type="building" color="255,230,230" fill="1" layer="-1.00" shape="351888.328955,6647011.772255 351887.323862,6646999.114277 351897.269109,6646998.214144 351898.058710,6647011.638859 351888.328955,6647011.772255"/>
    <poly id="113471377" type="building" color="255,230,230" fill="1" layer="-1.00" shape="352049.821374,6646902.917116 352054.950332,6646921.329959 352058.647892,6646934.593710 352065.377408,6646958.750914 352073.259100,6646956.194662 352072.319279,6646953.121820 352065.008817,6646929.266567 352056.275778,6646900.763560 352049.821374,6646902.917116"/>
    <poly id="113471378" type="building" color="255,230,230" fill="1" layer="-1.00" shape="351920.566385,6647037.884020 351933.214519,6647035.883485 351930.692495,6647022.784576 351918.537239,6647024.520105 351920.566385,6647037.884020"/>
    <poly id="113471392" type="building" color="255,230,230" fill="1" layer="-1.00" shape="352110.775336,6647000.023687 352100.835175,6647001.190607 352101.284863,6647005.018869 352110.797569,6647003.935941 352121.293200,6647002.668787 352120.843533,6646998.840523 352110.775336,6647000.023687"/>
    <poly id="113471397" type="building" color="255,230,230" fill="1" layer="-1.00" shape="352026.024997,6646915.898831 352035.813280,6646952.029757 352049.103223,6646948.443149 352046.260839,6646937.954620 352051.557667,6646936.516294 352058.647892,6646934.593710 352054.950332,6646921.329959 352047.953950,6646923.081565 352041.610696,6646924.795895 352038.302171,6646912.586850 352026.024997,6646915.898831"/>
    <poly id="113471400" type="building" color="255,230,230" fill="1" layer="-1.00" shape="352114.265674,6646919.302302 352113.346282,6646915.760394 352110.213144,6646903.733807 352108.970157,6646898.956207 352107.872771,6646894.741359 352104.712806,6646882.604362 352102.951955,6646875.651216 352106.775451,6646874.584076 352106.517072,6646873.579894 352106.253107,6646872.575935 352110.202619,6646871.581798 352113.865684,6646885.805750 352115.854973,6646893.574755 352118.671192,6646904.532615 352120.501020,6646911.672533 352121.959252,6646917.355707 352114.265674,6646919.302302"/>
    <poly id="113471406" type="building" color="255,230,230" fill="1" layer="-1.00" shape="351901.135043,6646895.559140 351922.753310,6646979.901808 351915.415219,6646981.778846 351906.692238,6646984.001241 351885.068029,6646899.658885 351892.761109,6646897.700682 351901.135043,6646895.559140"/>
    <poly id="113471409" type="building" color="255,230,230" fill="1" layer="-1.00" shape="351860.407010,6646950.113317 351884.005376,6646947.428579 351882.460454,6646940.009772 351861.639334,6646943.586602 351861.140414,6646946.215366 351860.407010,6646950.113317"/>
    <poly id="113478291" type="building" color="255,230,230" fill="1" layer="-1.00" shape="352506.748330,6646877.267692 352508.677127,6646877.090405 352510.700444,6646876.898199 352511.067250,6646880.763239 352523.766499,6646880.167436 352538.878059,6646879.453158 352523.339861,6646841.421165 352515.334936,6646819.722235 352508.456154,6646820.643270 352509.875644,6646824.388274 352513.290267,6646833.404960 352507.466737,6646833.849108 352507.639035,6646838.167848 352505.449958,6646838.132549 352503.725421,6646838.101015 352503.079093,6646829.754286 352502.635897,6646823.974753 352502.429210,6646821.318510 352495.846057,6646822.216625 352486.724929,6646823.450136 352486.934992,6646826.050502 352488.393065,6646843.662684 352490.936731,6646874.319882 352492.133703,6646888.754015 352492.411733,6646892.076321 352507.900716,6646890.165114 352507.637354,6646887.210122 352507.295109,6646883.399844 352506.748330,6646877.267692"/>
    <poly id="113482754" type="building" color="255,230,230" fill="1" layer="-1.00" shape="351711.587141,6646990.038524 351721.669067,6647026.859363 351712.742505,6647029.302216 351702.660494,6646992.481401 351711.587141,6646990.038524"/>
    <poly id="113482755" type="building" color="255,230,230" fill="1" layer="-1.00" shape="351726.314260,6646959.101271 351729.881853,6646971.745645 351731.206854,6646977.021542 351700.390133,6646985.816412 351695.428140,6646967.564500 351700.833191,6646965.898349 351701.856884,6646969.101532 351707.256131,6646967.290692 351706.340134,6646964.261565 351715.681130,6646961.266948 351716.610960,6646964.641129 351722.473182,6646962.934376 351721.747546,6646960.466190 351726.314260,6646959.101271"/>
    <poly id="113482756" type="building" color="255,230,230" fill="1" layer="-1.00" shape="351674.989146,6647052.891094 351693.051058,6647047.216440 351700.935468,6647044.737303 351699.890170,6647039.740059 351699.280283,6647036.810141 351696.347727,6647035.812924 351676.311259,6647041.499893 351675.321372,6647044.438253 351676.596189,6647048.601284 351674.101080,6647049.303423 351674.989146,6647052.891094"/>
    <poly id="113482760" type="building" color="255,230,230" fill="1" layer="-1.00" shape="351729.881853,6646971.745645 351731.206854,6646977.021542 351738.475846,6646974.957379 351737.102585,6646969.872943 351729.881853,6646971.745645"/>
    <poly id="113482762" type="building" color="255,230,230" fill="1" layer="-1.00" shape="351700.935468,6647044.737303 351710.850913,6647042.120968 351709.231022,6647035.073127 351708.172312,6647030.578108 351703.590950,6647011.073422 351697.421369,6647012.647608 351702.909488,6647038.437181 351699.890170,6647039.740059 351700.935468,6647044.737303"/>
    <poly id="113482764" type="building" color="255,230,230" fill="1" layer="-1.00" shape="351730.107970,6646988.403759 351734.731743,6647005.900018 351736.716405,6647014.371410 351742.391048,6647034.634981 351710.850913,6647042.120968 351709.231022,6647035.073127 351733.672639,6647028.317771 351730.715082,6647015.537441 351727.839435,6647016.098723 351724.203057,6647003.133800 351726.846347,6647002.358863 351723.245226,6646990.273267 351728.800828,6646983.573091 351730.107970,6646988.403759"/>
    <poly id="113482766" type="building" color="255,230,230" fill="1" layer="-1.00" shape="351763.779305,6646967.498765 351772.195735,6646964.608258 351774.761981,6646963.724959 351775.208914,6646966.917839 351775.693594,6646970.354475 351765.542210,6646972.534140 351764.607028,6646969.862526 351763.779305,6646967.498765"/>
    <poly id="113490078" type="amenity" color="237,199,199" fill="1" layer="-1.00" shape="351837.320937,6647233.031241 351836.576900,6647222.982724 351833.216052,6647174.866273 351837.274446,6647173.666784 351840.145236,6647170.474705 351842.200131,6647166.468036 351842.385701,6647161.187309 351840.957645,6647156.406052 351838.135728,6647153.419844 351834.730857,6647150.824908 351831.371061,6647149.075463 351827.446733,6647093.043796 351826.826814,6647084.417328 351826.170738,6647075.167987 351824.868398,6647056.914182 351911.840494,6647044.220355 351942.872051,6647040.234827 351942.192233,6647036.950925 351991.581000,6647029.064433 352014.903276,6647025.644606 352014.157040,6647017.625209 352013.898739,6647015.784887 352034.459993,6647013.412196 352052.415487,6647011.634442 352052.204600,6647009.580397 352063.743676,6647008.104091 352063.522924,6647006.362600 352067.714425,6647005.826965 352067.461532,6647003.841492 352077.954483,6647002.507431 352078.182150,6647004.282091 352081.822430,6647003.813122 352081.301924,6646999.753576 352092.195295,6646998.358940 352110.395727,6646996.828089 352110.775336,6647000.023687 352100.835175,6647001.190607 352101.284863,6647005.018869 352110.797569,6647003.935941 352122.108093,6647092.270577 352128.440884,6647091.560159 352130.853986,6647120.416431 352131.538728,6647128.583229 352135.800026,6647155.670992 352137.788534,6647155.591451 352138.193170,6647160.112728 352136.029242,6647160.422256 352136.787963,6647165.263826 352141.942941,6647164.622835 352143.161371,6647174.663542 352146.320229,6647174.191587 352146.874253,6647177.692371 352126.402727,6647180.607173 352125.687426,6647176.711495 352107.371474,6647178.269237 352107.494091,6647180.215329 352086.353452,6647183.045640 352078.091750,6647183.922515 352072.690422,6647184.138661 352064.884315,6647184.796660 352064.707086,6647183.443627 352047.531234,6647185.669550 352030.991620,6647188.695079 352028.022489,6647189.014607 352011.757313,6647191.627889 352010.131445,6647191.681832 351987.013096,6647195.138176 351953.356184,6647199.752532 351941.699312,6647201.345421 351938.202892,6647201.909113 351932.971361,6647202.453121 351929.881356,6647202.967097 351921.886020,6647204.067775 351922.492756,6647207.622167 351918.589039,6647208.213343 351920.645200,6647226.581893 351920.976271,6647229.679088 351921.810128,6647239.601376 351838.563662,6647246.448945 351838.488854,6647245.838770 351837.320937,6647233.031241"/>
    <poly id="113498670" type="highway" color="26,26,26" fill="0" layer="10.00" shape="352201.950485,6646806.785283 352209.821968,6646834.475733 352216.373593,6646844.827238"/>
    <poly id="113498674" type="building" color="255,230,230" fill="1" layer="-1.00" shape="352211.431001,6646824.199351 352212.864936,6646828.857861 352221.504495,6646826.215907 352220.076155,6646821.557171 352216.035358,6646822.788955 352211.431001,6646824.199351"/>
    <poly id="113498675" type="highway" color="26,26,26" fill="0" layer="10.00" shape="352164.142112,6646857.807649 352190.463023,6646849.452914 352179.619604,6646817.544545"/>
    <poly id="113501211" type="highway" color="26,26,26" fill="0" layer="10.00" shape="351778.573098,6646828.662855 351761.515746,6646829.558587"/>
    <poly id="113501219" type="building" color="255,230,230" fill="1" layer="-1.00" shape="351725.327363,6646844.098284 351726.533810,6646847.951912 351725.760675,6646848.205892 351729.991705,6646861.905078 351736.408250,6646860.064638 351738.194416,6646861.353137 351740.731229,6646860.571336 351741.997725,6646865.225261 351734.001612,6646867.998631 351733.366410,6646866.808907 351726.792585,6646868.354648 351723.725468,6646860.238835 351718.437559,6646861.900244 351714.171484,6646863.230811 351710.376684,6646852.178663 351709.389161,6646849.319633 351709.154345,6646848.626689 351711.906573,6646847.635554 351712.114993,6646849.065365 351725.327363,6646844.098284"/>
    <poly id="113501222" type="highway" color="26,26,26" fill="0" layer="10.00" shape="351759.830702,6646766.881785 351753.957205,6646768.455130"/>
    <poly id="113501225" type="highway" color="26,26,26" fill="0" layer="10.00" shape="351788.855520,6646827.927313 351781.758801,6646828.434796 351778.573098,6646828.662855"/>
    <poly id="113501228" type="highway" color="26,26,26" fill="0" layer="10.00" shape="351784.098997,6646760.501717 351776.915380,6646762.194439 351773.763105,6646762.978589"/>
    <poly id="113501229" type="highway" color="26,26,26" fill="0" layer="10.00" shape="351773.763105,6646762.978589 351759.830702,6646766.881785"/>
    <poly id="113501234" type="building" color="255,230,230" fill="1" layer="-1.00" shape="351749.843645,6646813.638164 351755.254533,6646811.971873 351759.122936,6646810.768789 351762.693256,6646809.666850 351763.683733,6646823.484855 351761.092626,6646823.611047 351758.172826,6646823.772718 351757.168332,6646817.001196 351755.486031,6646816.210211 351751.024820,6646817.559705 351750.437472,6646815.609953 351749.843645,6646813.638164"/>
    <poly id="113520737" type="building" color="255,230,230" fill="1" layer="-1.00" shape="352478.327549,6646644.684687 352477.069774,6646641.769374 352474.470595,6646642.397064 352472.691075,6646638.465761 352470.144206,6646639.002178 352472.076459,6646643.395622 352468.243355,6646644.930986 352465.273662,6646637.535404 352464.998562,6646635.829514 352466.508074,6646634.676726 352462.550595,6646623.139878 352458.282495,6646624.291264 352458.585412,6646625.572401 352458.338820,6646626.964654 352456.930051,6646628.258355 352453.611474,6646629.226925 352446.007365,6646630.489160 352447.904785,6646635.831605 352450.407526,6646635.731725 352453.483565,6646644.249051 352451.470835,6646645.410778 352453.585825,6646652.840459 352458.978867,6646651.276273 352458.497373,6646650.147193 352463.506238,6646647.929435 352464.399983,6646649.153551 352478.327549,6646644.684687"/>
    <poly id="113520737#1" type="tourism" color="207,245,201" fill="1" layer="-2.00" shape="352478.327549,6646644.684687 352477.069774,6646641.769374 352474.470595,6646642.397064 352472.691075,6646638.465761 352470.144206,6646639.002178 352472.076459,6646643.395622 352468.243355,6646644.930986 352465.273662,6646637.535404 352464.998562,6646635.829514 352466.508074,6646634.676726 352462.550595,6646623.139878 352458.282495,6646624.291264 352458.585412,6646625.572401 352458.338820,6646626.964654 352456.930051,6646628.258355 352453.611474,6646629.226925 352446.007365,6646630.489160 352447.904785,6646635.831605 352450.407526,6646635.731725 352453.483565,6646644.249051 352451.470835,6646645.410778 352453.585825,6646652.840459 352458.978867,6646651.276273 352458.497373,6646650.147193 352463.506238,6646647.929435 352464.399983,6646649.153551 352478.327549,6646644.684687"/>
    <poly id="113520740" type="building" color="255,230,230" fill="1" layer="-1.00" shape="352442.017901,6646622.498828 352439.508656,6646614.304492 352452.406825,6646609.976957 352455.318202,6646618.433965 352442.017901,6646622.498828"/>
    <poly id="113520742" type="building" color="255,230,230" fill="1" layer="-1.00" shape="352422.003823,6646657.980624 352419.423822,6646660.770397 352421.421721,6646662.741972 352425.784800,6646661.308037 352426.716164,6646659.409062 352427.977499,6646658.767846 352429.461016,6646658.786672 352430.478315,6646659.180860 352431.110717,6646660.025201 352432.929996,6646659.484351 352441.462803,6646656.958685 352441.857743,6646655.638549 352441.597791,6646655.013460 352439.416034,6646654.743784 352437.766966,6646653.661305 352430.880482,6646633.088472 352431.411407,6646631.250076 352430.490081,6646631.297997 352430.458794,6646630.373921 352429.769936,6646631.059177 352428.587936,6646632.566808 352427.958677,6646634.464872 352427.768010,6646637.538319 352419.960008,6646640.280349 352418.608853,6646638.951869 352417.783402,6646637.056127 352417.278789,6646635.348253 352415.788023,6646635.708769 352414.915888,6646637.549639 352422.003823,6646657.980624"/>
    <poly id="113520743" type="building" color="255,230,230" fill="1" layer="-1.00" shape="352390.110425,6646572.629945 352389.884487,6646571.735937 352386.256515,6646560.330931 352391.159194,6646559.655813 352410.906249,6646553.081436 352414.679524,6646564.904306 352399.467181,6646569.714546 352390.110425,6646572.629945"/>
    <poly id="113530757" type="highway" color="26,26,26" fill="0" layer="10.00" shape="351747.893715,6647031.638294 351748.389918,6647032.710959"/>
    <poly id="113530758" type="highway" color="26,26,26" fill="0" layer="10.00" shape="351748.924775,6647033.770925 351748.389918,6647032.710959"/>
    <poly id="113531480" type="highway" color="26,26,26" fill="0" layer="10.00" shape="351780.828817,6646719.126568 351773.712881,6646719.857799 351770.654002,6646720.181112"/>
    <poly id="113581919" type="highway" color="26,26,26" fill="0" layer="10.00" shape="352544.209332,6646798.213331 352534.846045,6646800.671564"/>