<routes xmlns:xsi="http://www.w3.org/2001/XMLSchema-instance" xsi:noNamespaceSchemaLocation="http://sumo.dlr.de/xsd/routes_file.xsd">
	<flow id="f_202" type="CAR" begin="37" end="37" route="f8a" number="11" departPos="free" departLane="allowed"/>
	<!-- vid: 1142 iterations: 100 f_value: 771 zero_f_value: 790 -->
	<flow id="f_507" type="CAR" begin="37" end="37" route="f0a" number="12" departPos="free" departLane="allowed"/>
	<!-- vid: 3694 iterations: 100 f_value: 257 zero_f_value: 257 -->
	<flow id="f_203" type="CAR" begin="38" end="38" route="f3b" number="9" departPos="free" departLane="allowed"/>
	<flow id="f_508" type="CAR" begin="56" end="56" route="f0*" number="12" departPos="free" departLane="allowed"/>
	<flow id="f_509" type="CAR" begin="56" end="56" route="f1" number="7" departPos="free" departLane="allowed"/>
	<flow id="f_564" type="CAR" begin="98" end="98" route="f0a" number="11" departPos="free" departLane="allowed"/>
	<!-- vid: 1446 iterations: 16 f_value: -8 zero_f_value: 80 -->
	<flow id="f_565" type="CAR" begin="99" end="99" route="f0*" number="11" departPos="free" departLane="allowed"/>
	<flow id="f_615" type="CAR" begin="108" end="108" route="f0a" number="5" departPos="free" departLane="allowed"/>
	<!-- vid: 3694 iterations: 15 f_value: -35 zero_f_value: 337 -->
	<flow id="f_566" type="CAR" begin="112" end="112" route="f1" number="9" departPos="free" departLane="allowed"/>
	<flow id="f_617" type="CAR" begin="142" end="142" route="f8a" number="14" departPos="free" departLane="allowed"/>
	<flow id="f_616" type="CAR" begin="146" end="146" route="f0*" number="11" departPos="free" departLane="allowed"/>
	<flow id="f_830" type="CAR" begin="239" end="239" route="f2d" number="6" departPos="free" departLane="allowed"/>
	<!-- vid: 7551 iterations: 100 f_value: 206 zero_f_value: 275 -->
	<flow id="f_831" type="CAR" begin="241" end="241" route="f3a" number="22" departPos="free" departLane="allowed"/>
	<flow id="f_1145" type="CAR" begin="297" end="297" route="f4*" number="5" departPos="free" departLane="allowed"/>
	<flow id="f_1035" type="CAR" begin="298" end="298" route="f3b" number="9" departPos="free" departLane="allowed"/>
	<flow id="f_1034" type="CAR" begin="300" end="300" route="f8a" number="16" departPos="free" departLane="allowed"/>
	<!-- vid: 1412 iterations: 100 f_value: 746 zero_f_value: 777 -->
	<flow id="f_1144" type="CAR" begin="302" end="302" route="f4" number="17" departPos="free" departLane="allowed"/>
	<!-- vid: 6850 iterations: 35 f_value: -23 zero_f_value: 157 -->
	<flow id="f_1146" type="CAR" begin="307" end="307" route="f6a" number="7" departPos="free" departLane="allowed"/>
	<flow id="f_1248" type="CAR" begin="314" end="314" route="f0b" number="60" departPos="free" departLane="allowed"/>
	<!-- vid: 3788 iterations: 100 f_value: 827 zero_f_value: 828 -->
	<flow id="f_1508" type="CAR" begin="326" end="326" route="f0a" number="8" departPos="free" departLane="allowed"/>
	<!-- vid: 7516 iterations: 84 f_value: -25 zero_f_value: 225 -->
	<flow id="f_1509" type="CAR" begin="328" end="328" route="f0*" number="16" departPos="free" departLane="allowed"/>
	<flow id="f_1510" type="CAR" begin="338" end="338" route="f1" number="7" departPos="free" departLane="allowed"/>
	<flow id="f_1612" type="CAR" begin="345" end="345" route="f0b" number="25" departPos="free" departLane="allowed"/>
	<!-- vid: 6929 iterations: 100 f_value: 745 zero_f_value: 745 -->
	<flow id="f_1815" type="CAR" begin="379" end="379" route="f5" number="6" departPos="free" departLane="allowed"/>
	<!-- vid: 3788 iterations: 100 f_value: 821 zero_f_value: 827 -->
	<flow id="f_1816" type="CAR" begin="383" end="383" route="f6b" number="7" departPos="free" departLane="allowed"/>
	<flow id="f_2020" type="CAR" begin="405" end="405" route="f6b" number="22" departPos="free" departLane="allowed"/>
	<flow id="f_2019" type="CAR" begin="413" end="413" route="f5" number="25" departPos="free" departLane="allowed"/>
	<!-- vid: 6270 iterations: 100 f_value: 14 zero_f_value: 14 -->
	<flow id="f_2224" type="CAR" begin="439" end="439" route="f3b" number="9" departPos="free" departLane="allowed"/>
	<flow id="f_2428" type="CAR" begin="441" end="441" route="f6b" number="13" departPos="free" departLane="allowed"/>
	<flow id="f_2223" type="CAR" begin="443" end="443" route="f8a" number="6" departPos="free" departLane="allowed"/>
	<!-- vid: 19702 iterations: 100 f_value: 786 zero_f_value: 787 -->
	<flow id="f_2427" type="CAR" begin="443" end="443" route="f5" number="21" departPos="free" departLane="allowed"/>
	<!-- vid: 6898 iterations: 100 f_value: 778 zero_f_value: 778 -->
	<flow id="f_2634" type="CAR" begin="455" end="455" route="f6b" number="11" departPos="free" departLane="allowed"/>
	<flow id="f_2633" type="CAR" begin="472" end="472" route="f5" number="12" departPos="free" departLane="allowed"/>
	<!-- vid: 1146 iterations: 100 f_value: 158 zero_f_value: 158 -->
	<flow id="f_2697" type="CAR" begin="493" end="493" route="f1" number="11" departPos="free" departLane="allowed"/>
	<flow id="f_2696" type="CAR" begin="494" end="494" route="f0*" number="5" departPos="free" departLane="allowed"/>
	<flow id="f_2695" type="CAR" begin="500" end="500" route="f0a" number="11" departPos="free" departLane="allowed"/>
	<!-- vid: 3587 iterations: 19 f_value: -37 zero_f_value: 87 -->
	<flow id="f_2901" type="CAR" begin="503" end="503" route="f6b" number="23" departPos="free" departLane="allowed"/>
	<flow id="f_2900" type="CAR" begin="504" end="504" route="f5" number="30" departPos="free" departLane="allowed"/>
	<!-- vid: 7551 iterations: 100 f_value: 342 zero_f_value: 342 -->
	<flow id="f_3111" type="CAR" begin="521" end="521" route="f6b" number="18" departPos="free" departLane="allowed"/>
	<flow id="f_3110" type="CAR" begin="535" end="535" route="f5" number="27" departPos="free" departLane="allowed"/>
	<!-- vid: 6929 iterations: 100 f_value: 754 zero_f_value: 754 -->
	<flow id="f_3164" type="CAR" begin="596" end="596" route="f0a" number="11" departPos="free" departLane="allowed"/>
	<!-- vid: 6224 iterations: 11 f_value: -30 zero_f_value: 83 -->
	<flow id="f_3165" type="CAR" begin="601" end="601" route="f0*" number="10" departPos="free" departLane="allowed"/>
	<flow id="f_3166" type="CAR" begin="603" end="603" route="f1" number="5" departPos="free" departLane="allowed"/>
	<flow id="f_3268" type="CAR" begin="640" end="640" route="f4*" number="7" departPos="free" departLane="allowed"/>
	<!-- vid: 6850 iterations: 100 f_value: 124 zero_f_value: 209 -->
	<flow id="f_3478" type="CAR" begin="668" end="668" route="f3b" number="5" departPos="free" departLane="allowed"/>
	<flow id="f_3477" type="CAR" begin="672" end="672" route="f8a" number="9" departPos="free" departLane="allowed"/>
	<!-- vid: 1203 iterations: 100 f_value: 843 zero_f_value: 866 -->
	<flow id="f_3697" type="CAR" begin="762" end="762" route="f2b" number="16" departPos="free" departLane="allowed"/>
	<flow id="f_3696" type="CAR" begin="765" end="765" route="f0b" number="16" departPos="free" departLane="allowed"/>
	<!-- vid: 7248 iterations: 100 f_value: 707 zero_f_value: 725 -->
	<flow id="f_3812" type="CAR" begin="852" end="852" route="f0b" number="9" departPos="free" departLane="allowed"/>
	<!-- vid: 1262 iterations: 100 f_value: 343 zero_f_value: 345 -->
	<flow id="f_3834" type="CAR" begin="868" end="868" route="f0a" number="9" departPos="free" departLane="allowed"/>
	<!-- vid: 3606 iterations: 6 f_value: 4 zero_f_value: 34 -->
	<flow id="f_3836" type="CAR" begin="868" end="868" route="f1" number="11" departPos="free" departLane="allowed"/>
	<flow id="f_4044" type="CAR" begin="902" end="902" route="f6b" number="23" departPos="free" departLane="allowed"/>
	<flow id="f_4043" type="CAR" begin="908" end="908" route="f5" number="6" departPos="free" departLane="allowed"/>
	<!-- vid: 7383 iterations: 100 f_value: 1429 zero_f_value: 1436 -->
	<flow id="f_4255" type="CAR" begin="1007" end="1007" route="f5" number="6" departPos="free" departLane="allowed"/>
	<!-- vid: 1262 iterations: 100 f_value: 330 zero_f_value: 331 -->
	<flow id="f_4256" type="CAR" begin="1018" end="1018" route="f6b" number="7" departPos="free" departLane="allowed"/>
	<flow id="f_4463" type="CAR" begin="1072" end="1072" route="f8a" number="8" departPos="free" departLane="allowed"/>
	<!-- vid: 1285 iterations: 100 f_value: 733 zero_f_value: 756 -->
	<flow id="f_4464" type="CAR" begin="1082" end="1082" route="f3b" number="13" departPos="free" departLane="allowed"/>
	<flow id="f_5321" type="CAR" begin="1306" end="1306" route="f0a" number="17" departPos="free" departLane="allowed"/>
	<!-- vid: 6976 iterations: 100 f_value: 148 zero_f_value: 178 -->
	<flow id="f_4578" type="CAR" begin="1308" end="1308" route="f0b" number="16" departPos="free" departLane="allowed"/>
	<!-- vid: 1227 iterations: 100 f_value: 1267 zero_f_value: 1275 -->
	<flow id="f_4707" type="CAR" begin="1316" end="1316" route="f2d" number="7" departPos="free" departLane="allowed"/>
	<!-- vid: 7231 iterations: 60 f_value: 3 zero_f_value: 147 -->
	<flow id="f_4708" type="CAR" begin="1318" end="1318" route="f3a" number="26" departPos="free" departLane="allowed"/>
	<flow id="f_5322" type="CAR" begin="1319" end="1319" route="f0*" number="9" departPos="free" departLane="allowed"/>
	<flow id="f_4813" type="CAR" begin="1324" end="1324" route="f2a" number="12" departPos="free" departLane="allowed"/>
	<!-- vid: 7367 iterations: 100 f_value: 86 zero_f_value: 86 -->
	<flow id="f_5016" type="CAR" begin="1351" end="1351" route="f5" number="27" departPos="free" departLane="allowed"/>
	<!-- vid: 6254 iterations: 100 f_value: 52 zero_f_value: 52 -->
	<flow id="f_5323" type="CAR" begin="1352" end="1352" route="f8a" number="10" departPos="free" departLane="allowed"/>
	<flow id="f_5017" type="CAR" begin="1359" end="1359" route="f6b" number="29" departPos="free" departLane="allowed"/>
	<flow id="f_5670" type="CAR" begin="1373" end="1373" route="f0*" number="6" departPos="free" departLane="allowed"/>
	<flow id="f_5629" type="CAR" begin="1382" end="1382" route="f6b" number="16" departPos="free" departLane="allowed"/>
	<flow id="f_5628" type="CAR" begin="1387" end="1387" route="f5" number="10" departPos="free" departLane="allowed"/>
	<!-- vid: 7231 iterations: 100 f_value: 367 zero_f_value: 367 -->
	<flow id="f_5425" type="CAR" begin="1398" end="1398" route="f0b" number="36" departPos="free" departLane="allowed"/>
	<!-- vid: 6936 iterations: 100 f_value: 1036 zero_f_value: 1036 -->
	<flow id="f_5669" type="CAR" begin="1428" end="1428" route="f0a" number="7" departPos="free" departLane="allowed"/>
	<!-- vid: 3643 iterations: 10 f_value: -91 zero_f_value: 87 -->
	<flow id="f_5671" type="CAR" begin="1437" end="1437" route="f8a" number="7" departPos="free" departLane="allowed"/>
	<flow id="f_5875" type="CAR" begin="1454" end="1454" route="f6b" number="35" departPos="free" departLane="allowed"/>
	<flow id="f_5874" type="CAR" begin="1480" end="1480" route="f5" number="6" departPos="free" departLane="allowed"/>
	<!-- vid: 1227 iterations: 100 f_value: 1789 zero_f_value: 1795 -->
	<flow id="f_5977" type="CAR" begin="1482" end="1482" route="f0b" number="17" departPos="free" departLane="allowed"/>
	<!-- vid: 1409 iterations: 100 f_value: 729 zero_f_value: 733 -->
	<flow id="f_6180" type="CAR" begin="1496" end="1496" route="f5" number="10" departPos="free" departLane="allowed"/>
	<!-- vid: 6936 iterations: 100 f_value: 1150 zero_f_value: 1150 -->
	<flow id="f_6181" type="CAR" begin="1500" end="1500" route="f6b" number="12" departPos="free" departLane="allowed"/>
	<flow id="f_6283" type="CAR" begin="1517" end="1517" route="f0b" number="31" departPos="free" departLane="allowed"/>
	<!-- vid: 3700 iterations: 100 f_value: 1113 zero_f_value: 1113 -->
	<flow id="f_6486" type="CAR" begin="1521" end="1521" route="f8a" number="5" departPos="free" departLane="allowed"/>
	<!-- vid: 1213 iterations: 100 f_value: 335 zero_f_value: 365 -->
	<flow id="f_6487" type="CAR" begin="1528" end="1528" route="f3b" number="15" departPos="free" departLane="allowed"/>
	<flow id="f_6693" type="CAR" begin="1582" end="1582" route="f3b" number="7" departPos="free" departLane="allowed"/>
	<flow id="f_6795" type="CAR" begin="1587" end="1587" route="f0b" number="20" departPos="free" departLane="allowed"/>
	<!-- vid: 6983 iterations: 100 f_value: 947 zero_f_value: 952 -->
	<flow id="f_6692" type="CAR" begin="1588" end="1588" route="f2c" number="11" departPos="free" departLane="allowed"/>
	<!-- vid: 7185 iterations: 100 f_value: 600 zero_f_value: 621 -->
	<flow id="f_6998" type="CAR" begin="1641" end="1641" route="f2d" number="20" departPos="free" departLane="allowed"/>
	<!-- vid: 7172 iterations: 100 f_value: 13 zero_f_value: 318 -->
	<flow id="f_6999" type="CAR" begin="1651" end="1651" route="f3a" number="12" departPos="free" departLane="allowed"/>
	<flow id="f_7202" type="CAR" begin="1652" end="1652" route="f5" number="22" departPos="free" departLane="allowed"/>
	<!-- vid: 1409 iterations: 100 f_value: 1714 zero_f_value: 1730 -->
	<flow id="f_7203" type="CAR" begin="1652" end="1652" route="f6b" number="8" departPos="free" departLane="allowed"/>
	<flow id="f_7612" type="CAR" begin="1698" end="1698" route="f5" number="30" departPos="free" departLane="allowed"/>
	<!-- vid: 7172 iterations: 100 f_value: 307 zero_f_value: 307 -->
	<flow id="f_7408" type="CAR" begin="1703" end="1703" route="f8a" number="8" departPos="free" departLane="allowed"/>
	<!-- vid: 19628 iterations: 100 f_value: 398 zero_f_value: 421 -->
	<flow id="f_7409" type="CAR" begin="1710" end="1710" route="f3b" number="10" departPos="free" departLane="allowed"/>
	<flow id="f_7613" type="CAR" begin="1712" end="1712" route="f6b" number="26" departPos="free" departLane="allowed"/>
	<flow id="f_8022" type="CAR" begin="1744" end="1744" route="f0*" number="5" departPos="free" departLane="allowed"/>
	<flow id="f_8023" type="CAR" begin="1745" end="1745" route="f1" number="11" departPos="free" departLane="allowed"/>
	<flow id="f_8125" type="CAR" begin="1745" end="1745" route="f2a" number="27" departPos="free" departLane="allowed"/>
	<!-- vid: 7130 iterations: 100 f_value: 151 zero_f_value: 151 -->
	<flow id="f_7717" type="CAR" begin="1750" end="1750" route="f0b" number="25" departPos="free" departLane="allowed"/>
	<!-- vid: 1393 iterations: 100 f_value: 1569 zero_f_value: 1569 -->
	<flow id="f_8021" type="CAR" begin="1751" end="1751" route="f0a" number="5" departPos="free" departLane="allowed"/>
	<!-- vid: 1239 iterations: 100 f_value: 106 zero_f_value: 181 -->
	<flow id="f_8329" type="CAR" begin="1779" end="1779" route="f6b" number="5" departPos="free" departLane="allowed"/>
	<flow id="f_8328" type="CAR" begin="1790" end="1790" route="f5" number="10" departPos="free" departLane="allowed"/>
	<!-- vid: 6983 iterations: 100 f_value: 934 zero_f_value: 937 -->
	<flow id="f_8839" type="CAR" begin="1810" end="1810" route="f8a" number="5" departPos="free" departLane="allowed"/>
	<flow id="f_8533" type="CAR" begin="1811" end="1811" route="f6b" number="11" departPos="free" departLane="allowed"/>
	<flow id="f_8532" type="CAR" begin="1814" end="1814" route="f5" number="11" departPos="free" departLane="allowed"/>
	<!-- vid: 1393 iterations: 100 f_value: 1620 zero_f_value: 1626 -->
	<flow id="f_8837" type="CAR" begin="1827" end="1827" route="f0a" number="5" departPos="free" departLane="allowed"/>
	<!-- vid: 1239 iterations: 100 f_value: 336 zero_f_value: 414 -->
	<flow id="f_8838" type="CAR" begin="1838" end="1838" route="f0*" number="14" departPos="free" departLane="allowed"/>
	<flow id="f_8849" type="CAR" begin="2005" end="2005" route="f4" number="7" departPos="free" departLane="allowed"/>
	<!-- vid: 6855 iterations: 2 f_value: -217 zero_f_value: 53 -->
	<flow id="f_9055" type="CAR" begin="2103" end="2103" route="f3b" number="9" departPos="free" departLane="allowed"/>
	<flow id="f_9054" type="CAR" begin="2106" end="2106" route="f8a" number="9" departPos="free" departLane="allowed"/>
	<!-- vid: 1457 iterations: 100 f_value: 419 zero_f_value: 446 -->
	<flow id="f_9574" type="CAR" begin="2152" end="2152" route="f8a" number="7" departPos="free" departLane="allowed"/>
	<flow id="f_9573" type="CAR" begin="2169" end="2169" route="f0*" number="6" departPos="free" departLane="allowed"/>
	<flow id="f_9572" type="CAR" begin="2178" end="2178" route="f0a" number="5" departPos="free" departLane="allowed"/>
	<!-- vid: 3699 iterations: 100 f_value: 212 zero_f_value: 362 -->
	<flow id="f_9268" type="CAR" begin="2195" end="2195" route="f3b" number="5" departPos="free" departLane="allowed"/>
	<flow id="f_9267" type="CAR" begin="2198" end="2198" route="f2c" number="10" departPos="free" departLane="allowed"/>
	<!-- vid: 7550 iterations: 100 f_value: 495 zero_f_value: 519 -->
	<flow id="f_9878" type="CAR" begin="2213" end="2213" route="f0a" number="7" departPos="free" departLane="allowed"/>
	<!-- vid: 7549 iterations: 100 f_value: 341 zero_f_value: 448 -->
	<flow id="f_9879" type="CAR" begin="2215" end="2215" route="f0*" number="15" departPos="free" departLane="allowed"/>
	<flow id="f_9880" type="CAR" begin="2232" end="2232" route="f1" number="10" departPos="free" departLane="allowed"/>
	<flow id="f_10084" type="CAR" begin="2255" end="2255" route="f3a" number="7" departPos="free" departLane="allowed"/>
	<flow id="f_10083" type="CAR" begin="2256" end="2256" route="f2d" number="16" departPos="free" departLane="allowed"/>
	<!-- vid: 7597 iterations: 100 f_value: 369 zero_f_value: 538 -->
	<flow id="f_10289" type="CAR" begin="2347" end="2347" route="f8a" number="5" departPos="free" departLane="allowed"/>
	<!-- vid: 1233 iterations: 100 f_value: 136 zero_f_value: 232 -->
	<flow id="f_10290" type="CAR" begin="2348" end="2348" route="f3b" number="9" departPos="free" departLane="allowed"/>
	<flow id="f_10494" type="CAR" begin="2380" end="2380" route="f6b" number="9" departPos="free" departLane="allowed"/>
	<flow id="f_10493" type="CAR" begin="2382" end="2382" route="f5" number="20" departPos="free" departLane="allowed"/>
	<!-- vid: 7550 iterations: 100 f_value: 529 zero_f_value: 529 -->
	<flow id="f_10799" type="CAR" begin="2395" end="2395" route="f0a" number="14" departPos="free" departLane="allowed"/>
	<!-- vid: 6977 iterations: 100 f_value: 442 zero_f_value: 487 -->
	<flow id="f_11005" type="CAR" begin="2402" end="2402" route="f2b" number="11" departPos="free" departLane="allowed"/>
	<flow id="f_10800" type="CAR" begin="2407" end="2407" route="f0*" number="9" departPos="free" departLane="allowed"/>
	<flow id="f_10801" type="CAR" begin="2411" end="2411" route="f1" number="7" departPos="free" departLane="allowed"/>
	<flow id="f_11004" type="CAR" begin="2414" end="2414" route="f0b" number="15" departPos="free" departLane="allowed"/>
	<!-- vid: 7651_1 iterations: 100 f_value: 344 zero_f_value: 351 -->
	<flow id="f_11315" type="CAR" begin="2426" end="2426" route="f0*" number="9" departPos="free" departLane="allowed"/>
	<flow id="f_11314" type="CAR" begin="2427" end="2427" route="f0a" number="17" departPos="free" departLane="allowed"/>
	<!-- vid: 7522 iterations: 100 f_value: 202 zero_f_value: 372 -->
	<flow id="f_11316" type="CAR" begin="2433" end="2433" route="f1" number="5" departPos="free" departLane="allowed"/>
	<flow id="f_11521" type="CAR" begin="2450" end="2450" route="f5" number="10" departPos="free" departLane="allowed"/>
	<!-- vid: 3675 iterations: 100 f_value: 1122 zero_f_value: 1122 -->
	<flow id="f_11828" type="CAR" begin="2451" end="2451" route="f1" number="12" departPos="free" departLane="allowed"/>
	<flow id="f_11827" type="CAR" begin="2453" end="2453" route="f0*" number="5" departPos="free" departLane="allowed"/>
	<flow id="f_11522" type="CAR" begin="2455" end="2455" route="f6b" number="22" departPos="free" departLane="allowed"/>
	<flow id="f_11826" type="CAR" begin="2465" end="2465" route="f0a" number="8" departPos="free" departLane="allowed"/>
	<!-- vid: 3873 iterations: 100 f_value: 469 zero_f_value: 469 -->
	<flow id="f_11930" type="CAR" begin="2477" end="2477" route="f0b" number="21" departPos="free" departLane="allowed"/>
	<!-- vid: 1154 iterations: 100 f_value: 683 zero_f_value: 692 -->
	<flow id="f_12235" type="CAR" begin="2477" end="2477" route="f0*" number="14" departPos="free" departLane="allowed"/>
	<flow id="f_12236" type="CAR" begin="2477" end="2477" route="f1" number="10" departPos="free" departLane="allowed"/>
	<flow id="f_12234" type="CAR" begin="2490" end="2490" route="f0a" number="10" departPos="free" departLane="allowed"/>
	<!-- vid: 1496 iterations: 100 f_value: 85 zero_f_value: 258 -->
	<flow id="f_12445" type="CAR" begin="2591" end="2591" route="f6b" number="6" departPos="free" departLane="allowed"/>
	<flow id="f_12444" type="CAR" begin="2603" end="2603" route="f5" number="24" departPos="free" departLane="allowed"/>
	<!-- vid: 1154 iterations: 100 f_value: 815 zero_f_value: 819 -->
	<flow id="f_12547" type="CAR" begin="2649" end="2649" route="f0b" number="17" departPos="free" departLane="allowed"/>
	<!-- vid: 1229 iterations: 100 f_value: 767 zero_f_value: 778 -->
	<flow id="f_12756" type="CAR" begin="2750" end="2750" route="f5" number="25" departPos="free" departLane="allowed"/>
	<!-- vid: 1229 iterations: 100 f_value: 904 zero_f_value: 914 -->
	<flow id="f_12757" type="CAR" begin="2755" end="2755" route="f6b" number="16" departPos="free" departLane="allowed"/>
	<flow id="f_12766" type="CAR" begin="2795" end="2795" route="f4*" number="17" departPos="free" departLane="allowed"/>
	<!-- vid: 6856 iterations: 4 f_value: 4 zero_f_value: 21 -->
	<flow id="f_13082" type="CAR" begin="2914" end="2914" route="f0a" number="5" departPos="free" departLane="allowed"/>
	<!-- vid: 7233 iterations: 100 f_value: 151 zero_f_value: 324 -->
	<flow id="f_13083" type="CAR" begin="2918" end="2918" route="f0*" number="9" departPos="free" departLane="allowed"/>
	<flow id="f_13186" type="CAR" begin="2918" end="2918" route="f0b" number="23" departPos="free" departLane="allowed"/>
	<!-- vid: 6943 iterations: 100 f_value: 581 zero_f_value: 589 -->
	<flow id="f_13084" type="CAR" begin="2919" end="2919" route="f1" number="7" departPos="free" departLane="allowed"/>
	<flow id="f_13402" type="CAR" begin="2983" end="2983" route="f3b" number="9" departPos="free" departLane="allowed"/>
	<flow id="f_13401" type="CAR" begin="2989" end="2989" route="f8a" number="10" departPos="free" departLane="allowed"/>
	<!-- vid: 1153 iterations: 100 f_value: 228 zero_f_value: 252 -->
	<flow id="f_13612" type="CAR" begin="3035" end="3035" route="f2b" number="30" departPos="free" departLane="allowed"/>
	<flow id="f_13611" type="CAR" begin="3036" end="3036" route="f0b" number="16" departPos="free" departLane="allowed"/>
	<!-- vid: 7367_1 iterations: 100 f_value: 109 zero_f_value: 119 -->
	<flow id="f_13817" type="CAR" begin="3066" end="3066" route="f6b" number="5" departPos="free" departLane="allowed"/>
	<flow id="f_13816" type="CAR" begin="3067" end="3067" route="f5" number="11" departPos="free" departLane="allowed"/>
	<!-- vid: 6944 iterations: 100 f_value: 533 zero_f_value: 545 -->
	<flow id="f_14121" type="CAR" begin="3085" end="3085" route="f0a" number="5" departPos="free" departLane="allowed"/>
	<!-- vid: 7381_1 iterations: 100 f_value: 47 zero_f_value: 231 -->
	<flow id="f_14123" type="CAR" begin="3089" end="3089" route="f1" number="6" departPos="free" departLane="allowed"/>
	<flow id="f_14327" type="CAR" begin="3090" end="3090" route="f6b" number="21" departPos="free" departLane="allowed"/>
	<flow id="f_14122" type="CAR" begin="3099" end="3099" route="f0*" number="5" departPos="free" departLane="allowed"/>
	<flow id="f_14326" type="CAR" begin="3107" end="3107" route="f5" number="7" departPos="free" departLane="allowed"/>
	<!-- vid: 6943 iterations: 100 f_value: 756 zero_f_value: 756 -->
	<flow id="f_14631" type="CAR" begin="3122" end="3122" route="f0a" number="6" departPos="free" departLane="allowed"/>
	<!-- vid: 1304 iterations: 100 f_value: 181 zero_f_value: 321 -->
	<flow id="f_14633" type="CAR" begin="3123" end="3123" route="f1" number="5" departPos="free" departLane="allowed"/>
	<flow id="f_14632" type="CAR" begin="3130" end="3130" route="f0*" number="7" departPos="free" departLane="allowed"/>
	<flow id="f_14838" type="CAR" begin="3207" end="3207" route="f6b" number="12" departPos="free" departLane="allowed"/>
	<flow id="f_14837" type="CAR" begin="3210" end="3210" route="f5" number="10" departPos="free" departLane="allowed"/>
	<!-- vid: 6243 iterations: 100 f_value: 722 zero_f_value: 722 -->
	<flow id="f_15056" type="CAR" begin="3243" end="3243" route="f6b" number="22" departPos="free" departLane="allowed"/>
	<flow id="f_15055" type="CAR" begin="3265" end="3265" route="f5" number="22" departPos="free" departLane="allowed"/>
	<!-- vid: 1152 iterations: 100 f_value: 723 zero_f_value: 723 -->
	<flow id="f_15259" type="CAR" begin="3276" end="3276" route="f5" number="16" departPos="free" departLane="allowed"/>
	<!-- vid: 7388 iterations: 100 f_value: 562 zero_f_value: 562 -->
	<flow id="f_15260" type="CAR" begin="3283" end="3283" route="f6b" number="20" departPos="free" departLane="allowed"/>
	<flow id="f_15463" type="CAR" begin="3340" end="3340" route="f0b" number="9" departPos="free" departLane="allowed"/>
	<!-- vid: 7130_1 iterations: 100 f_value: 96 zero_f_value: 229 -->
	<flow id="f_15464" type="CAR" begin="3341" end="3341" route="f2b" number="10" departPos="free" departLane="allowed"/>
	<flow id="f_15770" type="CAR" begin="3342" end="3342" route="f1" number="5" departPos="free" departLane="allowed"/>
	<flow id="f_15769" type="CAR" begin="3345" end="3345" route="f0*" number="12" departPos="free" departLane="allowed"/>
	<flow id="f_15768" type="CAR" begin="3346" end="3346" route="f0a" number="10" departPos="free" departLane="allowed"/>
	<!-- vid: 3663 iterations: 100 f_value: 176 zero_f_value: 246 -->
	<flow id="f_15872" type="CAR" begin="3360" end="3360" route="f2a" number="5" departPos="free" departLane="allowed"/>
	<!-- vid: 7532 iterations: 100 f_value: 33 zero_f_value: 33 -->
	<flow id="f_16011" type="CAR" begin="3439" end="3439" route="f0a" number="17" departPos="free" departLane="allowed"/>
	<!-- vid: 1155_1 iterations: 45 f_value: 3 zero_f_value: 213 -->
	<flow id="f_16013" type="CAR" begin="3443" end="3443" route="f1" number="7" departPos="free" departLane="allowed"/>
	<flow id="f_16012" type="CAR" begin="3445" end="3445" route="f0*" number="10" departPos="free" departLane="allowed"/>
	<flow id="f_16429" type="CAR" begin="3485" end="3485" route="f8a" number="7" departPos="free" departLane="allowed"/>
	<flow id="f_16735" type="CAR" begin="3510" end="3510" route="f8a" number="10" departPos="free" departLane="allowed"/>
	<flow id="f_16733" type="CAR" begin="3526" end="3526" route="f0a" number="12" departPos="free" departLane="allowed"/>
	<!-- vid: 1304 iterations: 100 f_value: 142 zero_f_value: 253 -->
	<flow id="f_16734" type="CAR" begin="3533" end="3533" route="f0*" number="12" departPos="free" departLane="allowed"/>
	<flow id="f_16428" type="CAR" begin="3535" end="3535" route="f0*" number="5" departPos="free" departLane="allowed"/>
	<flow id="f_16123" type="CAR" begin="3558" end="3558" route="f0b" number="19" departPos="free" departLane="allowed"/>
	<!-- vid: 3608 iterations: 100 f_value: 424 zero_f_value: 432 -->
	<flow id="f_16427" type="CAR" begin="3563" end="3563" route="f0a" number="6" departPos="free" departLane="allowed"/>
	<!-- vid: 1304 iterations: 100 f_value: 251 zero_f_value: 253 -->
	<flow id="f_16945" type="CAR" begin="3563" end="3563" route="f6b" number="31" departPos="free" departLane="allowed"/>
	<flow id="f_16944" type="CAR" begin="3577" end="3577" route="f5" number="11" departPos="free" departLane="allowed"/>
	<!-- vid: 6267 iterations: 100 f_value: 173 zero_f_value: 188 -->
	<flow id="f_17047" type="CAR" begin="3589" end="3589" route="f0b" number="19" departPos="free" departLane="allowed"/>
	<!-- vid: 1348 iterations: 100 f_value: 465 zero_f_value: 465 -->
	<flow id="f_17054" type="CAR" begin="3626" end="3626" route="f0a" number="9" departPos="free" departLane="allowed"/>
	<!-- vid: 7551_1 iterations: 1 f_value: -19 zero_f_value: 76 -->
	<flow id="f_17260" type="CAR" begin="3664" end="3664" route="f3b" number="5" departPos="free" departLane="allowed"/>
	<flow id="f_17259" type="CAR" begin="3668" end="3668" route="f2c" number="9" departPos="free" departLane="allowed"/>
	<!-- vid: 7567 iterations: 100 f_value: 540 zero_f_value: 581 -->
	<flow id="f_17379" type="CAR" begin="3915" end="3915" route="f0b" number="7" departPos="free" departLane="allowed"/>
	<!-- vid: 3660 iterations: 100 f_value: 226 zero_f_value: 237 -->
	<flow id="f_17582" type="CAR" begin="3953" end="3953" route="f5" number="10" departPos="free" departLane="allowed"/>
	<!-- vid: 6265 iterations: 100 f_value: 35 zero_f_value: 42 -->
	<flow id="f_17583" type="CAR" begin="3960" end="3960" route="f6b" number="5" departPos="free" departLane="allowed"/>
	<flow id="f_17743" type="CAR" begin="4033" end="4033" route="f2a" number="14" departPos="free" departLane="allowed"/>
	<!-- vid: 7227 iterations: 100 f_value: 130 zero_f_value: 130 -->
	<flow id="f_17637" type="CAR" begin="4034" end="4034" route="f0a" number="9" departPos="free" departLane="allowed"/>
	<!-- vid: 6929_1 iterations: 16 f_value: -91 zero_f_value: 49 -->
	<flow id="f_17639" type="CAR" begin="4034" end="4034" route="f1" number="8" departPos="free" departLane="allowed"/>
	<flow id="f_17638" type="CAR" begin="4040" end="4040" route="f0*" number="10" departPos="free" departLane="allowed"/>
	<flow id="f_17946" type="CAR" begin="4054" end="4054" route="f8a" number="5" departPos="free" departLane="allowed"/>
	<!-- vid: 19678 iterations: 100 f_value: 145 zero_f_value: 168 -->
	<flow id="f_17947" type="CAR" begin="4055" end="4055" route="f3b" number="6" departPos="free" departLane="allowed"/>
	<flow id="f_18156" type="CAR" begin="4070" end="4070" route="f5" number="28" departPos="free" departLane="allowed"/>